new LineCode.matrix-impedance-branch-1 NPhases=3 Units=km RMatrix=(0.054804939155332855 0.01939529398313847 0.019030362681937484 |0.01939529398313847 0.05604432613536944 0.019644215282748744 |0.019030362681937484 0.019644215282748744 0.05528122017418277 ) XMatrix=(0.12889724011771256 0.058117717529626974 0.04724359739123518 |0.058117717529626974 0.12476077209098861 0.05318185546408971 |0.04724359739123518 0.05318185546408971 0.12730466575200827 ) CMatrix=(1.8038467847769029 -0.42211919887854926 -0.13864655412391633 |-0.42211919887854926 1.9628867414300484 -0.29913803388212834 |-0.13864655412391633 -0.29913803388212834 1.799801658315438 ) NormAmps=90.0
new LineCode.matrix-impedance-branch-1 NPhases=2 Units=km RMatrix=(0.054804939155332855 0.01939529398313847 |0.01939529398313847 0.05604432613536944 ) XMatrix=(0.12889724011771256 0.058117717529626974 |0.058117717529626974 0.12476077209098861 ) CMatrix=(1.8038467847769029 -0.42211919887854926 |-0.42211919887854926 1.9628867414300484 ) NormAmps=90.0
