New Line.l(r:p10udt3085lv-p10ulv10191) Units=km Length=0.0196912 bus1=p10udt3085lv.1.2 bus2=p10ulv10191.1.2 switch=n enabled=y phases=2 Linecode=1P_OH_AL_2/0_Rucina_2

New Line.l(r:p10udm10027-p10ulv10174) Units=km Length=0.0161723 bus1=p10udm10027.1.2 bus2=p10ulv10174.1.2 switch=n enabled=y phases=2 Linecode=1P_OH_AL_2/0_Rucina_2

New Line.l(r:p10udm10027-p10ulv10183) Units=km Length=0.027108300000000002 bus1=p10udm10027.1.2 bus2=p10ulv10183.1.2 switch=n enabled=y phases=2 Linecode=1P_OH_AL_4/0_Zuzara_2

New Line.l(r:p10udm10027-p10udt3085lv) Units=km Length=0.0394255 bus1=p10udt3085lv.1.2 bus2=p10udm10027.1.2 switch=n enabled=y phases=2 Linecode=1P_OH_AL_4/0_Zuzara_2

New Line.l(r:p10udm10028-p10ulv10177) Units=km Length=0.047196100000000005 bus1=p10udm10028.1.2 bus2=p10ulv10177.1.2 switch=n enabled=y phases=2 Linecode=1P_OH_AL_4/0_Zuzara_2

New Line.l(r:p10udm10029-p10ulv10178) Units=km Length=0.0465797 bus1=p10udm10029.1.2 bus2=p10ulv10178.1.2 switch=n enabled=y phases=2 Linecode=1P_OH_AL_4/0_Zuzara_2

New Line.l(r:p10udm10028-p10udm10029) Units=km Length=0.0197127 bus1=p10udm10028.1.2 bus2=p10udm10029.1.2 switch=n enabled=y phases=2 Linecode=1P_OH_AL_2/0_Rucina_2

New Line.l(r:p10udm10028-p10udt3085lv) Units=km Length=0.0197086 bus1=p10udt3085lv.1.2 bus2=p10udm10028.1.2 switch=n enabled=y phases=2 Linecode=1P_OH_AL_2/0_Rucina_2

New Line.l(r:p10udt3087lv-p10ulv10188) Units=km Length=0.0648709 bus1=p10udt3087lv.1.2 bus2=p10ulv10188.1.2 switch=n enabled=y phases=2 Linecode=1P_OH_AL_4/0_Zuzara_2

New Line.l(r:p10udt3087lv-p10ulv10192) Units=km Length=0.028998000000000003 bus1=p10udt3087lv.1.2 bus2=p10ulv10192.1.2 switch=n enabled=y phases=2 Linecode=1P_OH_AL_4/0_Zuzara_2

New Line.l(r:p10udt3087lv-p10ulv10196) Units=km Length=0.105034 bus1=p10udt3087lv.1.2 bus2=p10ulv10196.1.2 switch=n enabled=y phases=2 Linecode=1P_OH_AL_4/0_Zuzara_2

New Line.l(r:p10udm10034-p10ulv10176) Units=km Length=0.025790800000000003 bus1=p10udm10034.1.2 bus2=p10ulv10176.1.2 switch=n enabled=y phases=2 Linecode=1P_OH_AL_2/0_Rucina_2

New Line.l(r:p10udm10037-p10ulv10190) Units=km Length=0.05141660000000001 bus1=p10udm10037.1.2 bus2=p10ulv10190.1.2 switch=n enabled=y phases=2 Linecode=1P_OH_AL_4/0_Zuzara_2

New Line.l(r:p10udm10034-p10udm10037) Units=km Length=0.0197127 bus1=p10udm10034.1.2 bus2=p10udm10037.1.2 switch=n enabled=y phases=2 Linecode=1P_OH_AL_2/0_Rucina_2

New Line.l(r:p10udm10034-p10udt3087lv) Units=km Length=0.0196995 bus1=p10udt3087lv.1.2 bus2=p10udm10034.1.2 switch=n enabled=y phases=2 Linecode=1P_OH_AL_2/0_Rucina_2

New Line.l(r:p10udm10035-p10ulv10185) Units=km Length=0.08353310000000001 bus1=p10udm10035.1.2 bus2=p10ulv10185.1.2 switch=n enabled=y phases=2 Linecode=1P_OH_AL_4/0_Zuzara_2

New Line.l(r:p10udm10035-p10ulv10195) Units=km Length=0.020466 bus1=p10udm10035.1.2 bus2=p10ulv10195.1.2 switch=n enabled=y phases=2 Linecode=1P_OH_AL_2/0_Rucina_2

New Line.l(r:p10udm10035-p10udt3087lv) Units=km Length=0.0197127 bus1=p10udt3087lv.1.2 bus2=p10udm10035.1.2 switch=n enabled=y phases=2 Linecode=1P_OH_AL_2/0_Rucina_2

New Line.l(r:p10udt3090lv-p10ulv10181) Units=km Length=0.08900780000000001 bus1=p10udt3090lv.1.2 bus2=p10ulv10181.1.2 switch=n enabled=y phases=2 Linecode=1P_UG_AL_1/0_Brenau_2

New Line.l(r:p10udm10046-p10ulv13908) Units=km Length=0.027991 bus1=p10udm10046.1.2 bus2=p10ulv13908.1.2 switch=n enabled=y phases=2 Linecode=1P_UG_AL_4/0_Sweetbriar_2

New Line.l(r:p10udm10047-p10ulv13912) Units=km Length=0.00519963 bus1=p10udm10047.1.2 bus2=p10ulv13912.1.2 switch=n enabled=y phases=2 Linecode=1P_UG_AL_1/0_Brenau_2

New Line.l(r:p10udm10045-p10ulv10182) Units=km Length=0.02235 bus1=p10udm10045.1.2 bus2=p10ulv10182.1.2 switch=n enabled=y phases=2 Linecode=1P_UG_AL_4/0_Sweetbriar_2

New Line.l(r:p10udm10045-p10udm10047) Units=km Length=0.00979013 bus1=p10udm10047.1.2 bus2=p10udm10045.1.2 switch=n enabled=y phases=2 Linecode=1P_UG_AL_4/0_Sweetbriar_2

New Line.l(r:p10udm10046-p10udm10047) Units=km Length=0.00978013 bus1=p10udm10046.1.2 bus2=p10udm10047.1.2 switch=n enabled=y phases=2 Linecode=1P_UG_AL_4/0_Sweetbriar_2

New Line.l(r:p10udm10046-p10udt3090lv) Units=km Length=0.00978013 bus1=p10udt3090lv.1.2 bus2=p10udm10046.1.2 switch=n enabled=y phases=2 Linecode=1P_UG_AL_4/0_Sweetbriar_2

New Line.l(r:p10udm10048-p10ulv21063) Units=km Length=0.0117921 bus1=p10udm10048.1.2 bus2=p10ulv21063.1.2 switch=n enabled=y phases=2 Linecode=1P_UG_AL_1/0_Brenau_2

New Line.l(r:p10udm10048-p10udt3090lv) Units=km Length=0.068471 bus1=p10udt3090lv.1.2 bus2=p10udm10048.1.2 switch=n enabled=y phases=2 Linecode=1P_UG_AL_1/0_Brenau_2

New Line.l(r:p10udt3092lv-p10ulv10187) Units=km Length=0.0318519 bus1=p10udt3092lv.1.2 bus2=p10ulv10187.1.2 switch=n enabled=y phases=2 Linecode=1P_OH_AL_4/0_Zuzara_2

New Line.l(r:p10udt3092lv-p10ulv10194) Units=km Length=0.0568124 bus1=p10udt3092lv.1.2 bus2=p10ulv10194.1.2 switch=n enabled=y phases=2 Linecode=1P_OH_AL_4/0_Zuzara_2

New Line.l(r:p10udm12275-p10ulv12784) Units=km Length=0.0150743 bus1=p10udm12275.1.2 bus2=p10ulv12784.1.2 switch=n enabled=y phases=2 Linecode=1P_UG_AL_1/0_Brenau_2

New Line.l(r:p10udm12272-p10ulv12266) Units=km Length=0.00539282 bus1=p10udm12272.1.2 bus2=p10ulv12266.1.2 switch=n enabled=y phases=2 Linecode=1P_UG_AL_1/0_Brenau_2

New Line.l(r:p10udm12272-p10udm12275) Units=km Length=0.0480432 bus1=p10udm12275.1.2 bus2=p10udm12272.1.2 switch=n enabled=y phases=2 Linecode=1P_UG_AL_1/0_Brenau_2

New Line.l(r:p10udm12275-p10udt3719lv) Units=km Length=0.0195821 bus1=p10udt3719lv.1.2 bus2=p10udm12275.1.2 switch=n enabled=y phases=2 Linecode=1P_UG_AL_1/0_Brenau_2

New Line.l(r:p10udm12276-p10ulv12811) Units=km Length=0.0114147 bus1=p10udm12276.1.2 bus2=p10ulv12811.1.2 switch=n enabled=y phases=2 Linecode=1P_UG_AL_1/0_Brenau_2

New Line.l(r:p10udm12273-p10ulv12677) Units=km Length=0.0399301 bus1=p10udm12273.1.2 bus2=p10ulv12677.1.2 switch=n enabled=y phases=2 Linecode=1P_UG_AL_1/0_Brenau_2

New Line.l(r:p10udm12273-p10ulv12782) Units=km Length=0.0299331 bus1=p10udm12273.1.2 bus2=p10ulv12782.1.2 switch=n enabled=y phases=2 Linecode=1P_UG_AL_1/0_Brenau_2

New Line.l(r:p10udm12273-p10udm12276) Units=km Length=0.009792460000000001 bus1=p10udm12276.1.2 bus2=p10udm12273.1.2 switch=n enabled=y phases=2 Linecode=1P_UG_AL_1/0_Brenau_2

New Line.l(r:p10udm12276-p10udt3719lv) Units=km Length=0.00978969 bus1=p10udt3719lv.1.2 bus2=p10udm12276.1.2 switch=n enabled=y phases=2 Linecode=1P_UG_AL_4/0_Sweetbriar_2

New Line.l(r:p10udt3720lv-p10ulv12267) Units=km Length=0.0177104 bus1=p10udt3720lv.1.2 bus2=p10ulv12267.1.2 switch=n enabled=y phases=2 Linecode=1P_UG_AL_1/0_Brenau_2

New Line.l(r:p10udt3720lv-p10ulv15256) Units=km Length=0.0569902 bus1=p10udt3720lv.1.2 bus2=p10ulv15256.1.2 switch=n enabled=y phases=2 Linecode=1P_UG_AL_1/0_Brenau_2

New Line.l(r:p10udm12278-p10ulv12285) Units=km Length=0.0152026 bus1=p10udm12278.1.2 bus2=p10ulv12285.1.2 switch=n enabled=y phases=2 Linecode=1P_UG_AL_1/0_Brenau_2

New Line.l(r:p10udm12279-p10ulv12381) Units=km Length=0.0302249 bus1=p10udm12279.1.2 bus2=p10ulv12381.1.2 switch=n enabled=y phases=2 Linecode=1P_UG_AL_1/0_Brenau_2

New Line.l(r:p10udm12283-p10ulv12536) Units=km Length=0.0238815 bus1=p10udm12283.1.2 bus2=p10ulv12536.1.2 switch=n enabled=y phases=2 Linecode=1P_UG_AL_1/0_Brenau_2

New Line.l(r:p10udm12279-p10udm12283) Units=km Length=0.0532326 bus1=p10udm12279.1.2 bus2=p10udm12283.1.2 switch=n enabled=y phases=2 Linecode=1P_UG_AL_1/0_Brenau_2

New Line.l(r:p10udm12278-p10udm12279) Units=km Length=0.042820000000000004 bus1=p10udm12278.1.2 bus2=p10udm12279.1.2 switch=n enabled=y phases=2 Linecode=1P_UG_AL_1/0_Brenau_2

New Line.l(r:p10udm12278-p10udt3720lv) Units=km Length=0.00927019 bus1=p10udt3720lv.1.2 bus2=p10udm12278.1.2 switch=n enabled=y phases=2 Linecode=1P_UG_AL_1/0_Brenau_2

New Line.l(r:p10udm12280-p10ulv12414) Units=km Length=0.028409 bus1=p10udm12280.1.2 bus2=p10ulv12414.1.2 switch=n enabled=y phases=2 Linecode=1P_UG_AL_1/0_Brenau_2

New Line.l(r:p10udm12280-p10ulv12494) Units=km Length=0.0158022 bus1=p10udm12280.1.2 bus2=p10ulv12494.1.2 switch=n enabled=y phases=2 Linecode=1P_UG_AL_1/0_Brenau_2

New Line.l(r:p10udm12281-p10ulv12480) Units=km Length=0.011963 bus1=p10udm12281.1.2 bus2=p10ulv12480.1.2 switch=n enabled=y phases=2 Linecode=1P_UG_AL_1/0_Brenau_2

New Line.l(r:p10udm12280-p10udm12281) Units=km Length=0.018530500000000002 bus1=p10udm12280.1.2 bus2=p10udm12281.1.2 switch=n enabled=y phases=2 Linecode=1P_UG_AL_1/0_Brenau_2

New Line.l(r:p10udm12280-p10udt3720lv) Units=km Length=0.00926019 bus1=p10udt3720lv.1.2 bus2=p10udm12280.1.2 switch=n enabled=y phases=2 Linecode=1P_UG_AL_1/0_Brenau_2

New Line.l(r:p10udt3721lv-p10ulv12268) Units=km Length=0.0104599 bus1=p10udt3721lv.1.2 bus2=p10ulv12268.1.2 switch=n enabled=y phases=2 Linecode=1P_OH_AL_2/0_Rucina_2

New Line.l(r:p10udm12288-p10ulv12289) Units=km Length=0.0120265 bus1=p10udm12288.1.2 bus2=p10ulv12289.1.2 switch=n enabled=y phases=2 Linecode=1P_UG_AL_1/0_Brenau_2

New Line.l(r:p10udm12288-p10ulv12410) Units=km Length=0.011291 bus1=p10udm12288.1.2 bus2=p10ulv12410.1.2 switch=n enabled=y phases=2 Linecode=1P_UG_AL_1/0_Brenau_2

New Line.l(r:p10udm12286-p10ulv12269) Units=km Length=0.0130054 bus1=p10udm12286.1.2 bus2=p10ulv12269.1.2 switch=n enabled=y phases=2 Linecode=1P_UG_AL_1/0_Brenau_2

New Line.l(r:p10udm12287-p10ulv12277) Units=km Length=0.01763 bus1=p10udm12287.1.2 bus2=p10ulv12277.1.2 switch=n enabled=y phases=2 Linecode=1P_UG_AL_1/0_Brenau_2

New Line.l(r:p10udm12287-p10ulv12348) Units=km Length=0.0075589 bus1=p10udm12287.1.2 bus2=p10ulv12348.1.2 switch=n enabled=y phases=2 Linecode=1P_UG_AL_1/0_Brenau_2

New Line.l(r:p10udm12296-p10ulv12515) Units=km Length=0.011498 bus1=p10udm12296.1.2 bus2=p10ulv12515.1.2 switch=n enabled=y phases=2 Linecode=1P_UG_AL_1/0_Brenau_2

New Line.l(r:p10udm12287-p10udm12296) Units=km Length=0.00978001 bus1=p10udm12287.1.2 bus2=p10udm12296.1.2 switch=n enabled=y phases=2 Linecode=1P_UG_AL_1/0_Brenau_2

New Line.l(r:p10udm12286-p10udm12287) Units=km Length=0.00977002 bus1=p10udm12286.1.2 bus2=p10udm12287.1.2 switch=n enabled=y phases=2 Linecode=1P_UG_AL_1/0_Brenau_2

New Line.l(r:p10udm12286-p10udm12288) Units=km Length=0.00978001 bus1=p10udm12288.1.2 bus2=p10udm12286.1.2 switch=n enabled=y phases=2 Linecode=1P_UG_AL_2/0_Converse_2

New Line.l(r:p10udm12288-p10udt3722lv) Units=km Length=0.01955 bus1=p10udt3722lv.1.2 bus2=p10udm12288.1.2 switch=n enabled=y phases=2 Linecode=1P_UG_AL_4/0_Sweetbriar_2

New Line.l(r:p10udm12294-p10ulv12448) Units=km Length=0.0116362 bus1=p10udm12294.1.2 bus2=p10ulv12448.1.2 switch=n enabled=y phases=2 Linecode=1P_UG_AL_1/0_Brenau_2

New Line.l(r:p10udm12294-p10ulv12455) Units=km Length=0.0129734 bus1=p10udm12294.1.2 bus2=p10ulv12455.1.2 switch=n enabled=y phases=2 Linecode=1P_UG_AL_1/0_Brenau_2

New Line.l(r:p10udm12291-p10ulv12365) Units=km Length=0.0222099 bus1=p10udm12291.1.2 bus2=p10ulv12365.1.2 switch=n enabled=y phases=2 Linecode=1P_UG_AL_1/0_Brenau_2

New Line.l(r:p10udm12289-p10ulv12342) Units=km Length=0.0147638 bus1=p10udm12289.1.2 bus2=p10ulv12342.1.2 switch=n enabled=y phases=2 Linecode=1P_UG_AL_1/0_Brenau_2

New Line.l(r:p10udm12289-p10ulv12430) Units=km Length=0.0130155 bus1=p10udm12289.1.2 bus2=p10ulv12430.1.2 switch=n enabled=y phases=2 Linecode=1P_UG_AL_1/0_Brenau_2

New Line.l(r:p10udm12289-p10udm12291) Units=km Length=0.00977001 bus1=p10udm12291.1.2 bus2=p10udm12289.1.2 switch=n enabled=y phases=2 Linecode=1P_UG_AL_1/0_Brenau_2

New Line.l(r:p10udm12291-p10udm12294) Units=km Length=0.00977002 bus1=p10udm12294.1.2 bus2=p10udm12291.1.2 switch=n enabled=y phases=2 Linecode=1P_UG_AL_1/0_Brenau_2

New Line.l(r:p10udm12294-p10udt3722lv) Units=km Length=0.01955 bus1=p10udt3722lv.1.2 bus2=p10udm12294.1.2 switch=n enabled=y phases=2 Linecode=1P_UG_AL_1/0_Brenau_2

New Line.l(r:p10udt3724lv-p10ulv12271) Units=km Length=0.0338054 bus1=p10udt3724lv.1.2 bus2=p10ulv12271.1.2 switch=n enabled=y phases=2 Linecode=1P_OH_AL_4/0_Zuzara_2

New Line.l(r:p10udt3724lv-p10ulv12284) Units=km Length=0.015224500000000002 bus1=p10udt3724lv.1.2 bus2=p10ulv12284.1.2 switch=n enabled=y phases=2 Linecode=1P_OH_AL_2/0_Rucina_2

New Line.l(r:p10udt3724lv-p10ulv12531) Units=km Length=0.0267687 bus1=p10udt3724lv.1.2 bus2=p10ulv12531.1.2 switch=n enabled=y phases=2 Linecode=1P_OH_AL_2/0_Rucina_2

New Line.l(r:p10udm12303-p10ulv12323) Units=km Length=0.00342584 bus1=p10udm12303.1.2 bus2=p10ulv12323.1.2 switch=n enabled=y phases=2 Linecode=1P_OH_AL_4_Periwinkle_2

New Line.l(r:p10udm12306-p10ulv12421) Units=km Length=0.006183620000000001 bus1=p10udm12306.1.2 bus2=p10ulv12421.1.2 switch=n enabled=y phases=2 Linecode=1P_OH_AL_2/0_Rucina_2

New Line.l(r:p10udm12303-p10udm12306) Units=km Length=0.012945100000000001 bus1=p10udm12303.1.2 bus2=p10udm12306.1.2 switch=n enabled=y phases=2 Linecode=1P_OH_AL_2/0_Rucina_2

New Line.l(r:p10udm12303-p10udt3724lv) Units=km Length=0.0640827 bus1=p10udt3724lv.1.2 bus2=p10udm12303.1.2 switch=n enabled=y phases=2 Linecode=1P_OH_AL_4/0_Zuzara_2

New Line.l(r:p10udm12304-p10ulv12385) Units=km Length=0.0503023 bus1=p10udm12304.1.2 bus2=p10ulv12385.1.2 switch=n enabled=y phases=2 Linecode=1P_OH_AL_4/0_Zuzara_2

New Line.l(r:p10udm12304-p10ulv12411) Units=km Length=0.0541558 bus1=p10udm12304.1.2 bus2=p10ulv12411.1.2 switch=n enabled=y phases=2 Linecode=1P_OH_AL_4/0_Zuzara_2

New Line.l(r:p10udm12304-p10udt3724lv) Units=km Length=0.037224 bus1=p10udt3724lv.1.2 bus2=p10udm12304.1.2 switch=n enabled=y phases=2 Linecode=1P_OH_AL_4/0_Zuzara_2

New Line.l(r:p10udm12310-p10ulv12273) Units=km Length=0.00579314 bus1=p10udm12310.1.2 bus2=p10ulv12273.1.2 switch=n enabled=y phases=2 Linecode=1P_OH_AL_2/0_Rucina_2

New Line.l(r:p10udm12311-p10ulv12440) Units=km Length=0.005041910000000001 bus1=p10udm12311.1.2 bus2=p10ulv12440.1.2 switch=n enabled=y phases=2 Linecode=1P_OH_AL_2/0_Rucina_2

New Line.l(r:p10udm12310-p10udm12311) Units=km Length=0.0648135 bus1=p10udm12310.1.2 bus2=p10udm12311.1.2 switch=n enabled=y phases=2 Linecode=1P_OH_AL_4/0_Zuzara_2

New Line.l(r:p10udm12310-p10udt3726lv) Units=km Length=0.0213004 bus1=p10udt3726lv.1.2 bus2=p10udm12310.1.2 switch=n enabled=y phases=2 Linecode=1P_OH_AL_2/0_Rucina_2

New Line.l(r:p10udm12312-p10ulv12572) Units=km Length=0.00807357 bus1=p10udm12312.1.2 bus2=p10ulv12572.1.2 switch=n enabled=y phases=2 Linecode=1P_OH_AL_2/0_Rucina_2

New Line.l(r:p10udm12312-p10udt3726lv) Units=km Length=0.06821540000000001 bus1=p10udt3726lv.1.2 bus2=p10udm12312.1.2 switch=n enabled=y phases=2 Linecode=1P_OH_AL_4/0_Zuzara_2

New Line.l(r:p10udm12315-p10ulv12275) Units=km Length=0.00628339 bus1=p10udm12315.1.2 bus2=p10ulv12275.1.2 switch=n enabled=y phases=2 Linecode=1P_UG_AL_1/0_Brenau_2

New Line.l(r:p10udm12318-p10ulv16012) Units=km Length=0.0110456 bus1=p10udm12318.1.2 bus2=p10ulv16012.1.2 switch=n enabled=y phases=2 Linecode=1P_OH_AL_2/0_Rucina_2

New Line.l(r:p10udm12315-p10udm12318) Units=km Length=0.0134486 bus1=p10udm12315.1.2 bus2=p10udm12318.1.2 switch=n enabled=y phases=2 Linecode=1P_OH_AL_2/0_Rucina_2

New Line.l(r:p10udm12315-p10udt3728lv) Units=km Length=0.0183937 bus1=p10udt3728lv.1.2 bus2=p10udm12315.1.2 switch=n enabled=y phases=2 Linecode=1P_UG_AL_1/0_Brenau_2

New Line.l(r:p10udm12317-p10ulv16006) Units=km Length=0.00491294 bus1=p10udm12317.1.2 bus2=p10ulv16006.1.2 switch=n enabled=y phases=2 Linecode=1P_UG_AL_1/0_Brenau_2

New Line.l(r:p10udm12316-p10ulv12341) Units=km Length=0.0221669 bus1=p10udm12316.1.2 bus2=p10ulv12341.1.2 switch=n enabled=y phases=2 Linecode=1P_UG_AL_4/0_Sweetbriar_2

New Line.l(r:p10udm12316-p10udm12317) Units=km Length=0.013702 bus1=p10udm12317.1.2 bus2=p10udm12316.1.2 switch=n enabled=y phases=2 Linecode=1P_UG_AL_4/0_Sweetbriar_2

New Line.l(r:p10udm12317-p10udt3728lv) Units=km Length=0.00557842 bus1=p10udt3728lv.1.2 bus2=p10udm12317.1.2 switch=n enabled=y phases=2 Linecode=1P_UG_AL_4/0_Sweetbriar_2

New Line.l(r:p10udt3730lv-p10ulv12708) Units=km Length=0.0114042 bus1=p10udt3730lv.1.2 bus2=p10ulv12708.1.2 switch=n enabled=y phases=2 Linecode=1P_UG_AL_1/0_Brenau_2

New Line.l(r:p10udm12324-p10ulv12278) Units=km Length=0.011336300000000002 bus1=p10udm12324.1.2 bus2=p10ulv12278.1.2 switch=n enabled=y phases=2 Linecode=1P_UG_AL_1/0_Brenau_2

New Line.l(r:p10udm12324-p10ulv12307) Units=km Length=0.0153366 bus1=p10udm12324.1.2 bus2=p10ulv12307.1.2 switch=n enabled=y phases=2 Linecode=1P_UG_AL_1/0_Brenau_2

New Line.l(r:p10udm12330-p10ulv15385) Units=km Length=0.0184011 bus1=p10udm12330.1.2 bus2=p10ulv15385.1.2 switch=n enabled=y phases=2 Linecode=1P_UG_AL_1/0_Brenau_2

New Line.l(r:p10udm12328-p10ulv12522) Units=km Length=0.0175485 bus1=p10udm12328.1.2 bus2=p10ulv12522.1.2 switch=n enabled=y phases=2 Linecode=1P_UG_AL_1/0_Brenau_2

New Line.l(r:p10udm12328-p10udm12330) Units=km Length=0.0690609 bus1=p10udm12330.1.2 bus2=p10udm12328.1.2 switch=n enabled=y phases=2 Linecode=1P_UG_AL_1/0_Brenau_2

New Line.l(r:p10udm12324-p10udm12330) Units=km Length=0.009690330000000002 bus1=p10udm12324.1.2 bus2=p10udm12330.1.2 switch=n enabled=y phases=2 Linecode=1P_UG_AL_1/0_Brenau_2

New Line.l(r:p10udm12324-p10udt3730lv) Units=km Length=0.00970033 bus1=p10udt3730lv.1.2 bus2=p10udm12324.1.2 switch=n enabled=y phases=2 Linecode=1P_UG_AL_1/0_Brenau_2

New Line.l(r:p10udm12326-p10ulv12313) Units=km Length=0.0124689 bus1=p10udm12326.1.2 bus2=p10ulv12313.1.2 switch=n enabled=y phases=2 Linecode=1P_UG_AL_1/0_Brenau_2

New Line.l(r:p10udm12327-p10ulv12318) Units=km Length=0.00964324 bus1=p10udm12327.1.2 bus2=p10ulv12318.1.2 switch=n enabled=y phases=2 Linecode=1P_UG_AL_1/0_Brenau_2

New Line.l(r:p10udm12326-p10udm12327) Units=km Length=0.025024 bus1=p10udm12326.1.2 bus2=p10udm12327.1.2 switch=n enabled=y phases=2 Linecode=1P_UG_AL_1/0_Brenau_2

New Line.l(r:p10udm12326-p10udt3730lv) Units=km Length=0.019424 bus1=p10udt3730lv.1.2 bus2=p10udm12326.1.2 switch=n enabled=y phases=2 Linecode=1P_UG_AL_1/0_Brenau_2

New Line.l(r:p10udt3731lv-p10ulv12499) Units=km Length=0.00715545 bus1=p10udt3731lv.1.2 bus2=p10ulv12499.1.2 switch=n enabled=y phases=2 Linecode=1P_OH_AL_2/0_Rucina_2

New Line.l(r:p10udm12331-p10ulv12279) Units=km Length=0.00504486 bus1=p10udm12331.1.2 bus2=p10ulv12279.1.2 switch=n enabled=y phases=2 Linecode=1P_OH_AL_2/0_Rucina_2

New Line.l(r:p10udm12331-p10udt3731lv) Units=km Length=0.00973124 bus1=p10udt3731lv.1.2 bus2=p10udm12331.1.2 switch=n enabled=y phases=2 Linecode=1P_OH_AL_2/0_Rucina_2

New Line.l(r:p10udm12332-p10ulv12345) Units=km Length=0.00454526 bus1=p10udm12332.1.2 bus2=p10ulv12345.1.2 switch=n enabled=y phases=2 Linecode=1P_OH_AL_2/0_Rucina_2

New Line.l(r:p10udm12332-p10udt3731lv) Units=km Length=0.0173917 bus1=p10udt3731lv.1.2 bus2=p10udm12332.1.2 switch=n enabled=y phases=2 Linecode=1P_OH_AL_2/0_Rucina_2

New Line.l(r:p10udm12339-p10ulv12488) Units=km Length=0.0135117 bus1=p10udm12339.1.2 bus2=p10ulv12488.1.2 switch=n enabled=y phases=2 Linecode=1P_UG_AL_1/0_Brenau_2

New Line.l(r:p10udm12337-p10ulv12281) Units=km Length=0.0414461 bus1=p10udm12337.1.2 bus2=p10ulv12281.1.2 switch=n enabled=y phases=2 Linecode=1P_UG_AL_1/0_Brenau_2

New Line.l(r:p10udm12337-p10ulv12496) Units=km Length=0.0138385 bus1=p10udm12337.1.2 bus2=p10ulv12496.1.2 switch=n enabled=y phases=2 Linecode=1P_UG_AL_1/0_Brenau_2

New Line.l(r:p10udm12337-p10udm12339) Units=km Length=0.00854078 bus1=p10udm12339.1.2 bus2=p10udm12337.1.2 switch=n enabled=y phases=2 Linecode=1P_UG_AL_1/0_Brenau_2

New Line.l(r:p10udm12342-p10ulv12681) Units=km Length=0.0162959 bus1=p10udm12342.1.2 bus2=p10ulv12681.1.2 switch=n enabled=y phases=2 Linecode=1P_UG_AL_1/0_Brenau_2

New Line.l(r:p10udm12339-p10udm12342) Units=km Length=0.00480651 bus1=p10udm12339.1.2 bus2=p10udm12342.1.2 switch=n enabled=y phases=2 Linecode=1P_UG_AL_1/0_Brenau_2

New Line.l(r:p10udm12339-p10udt3733lv) Units=km Length=0.00852976 bus1=p10udt3733lv.1.2 bus2=p10udm12339.1.2 switch=n enabled=y phases=2 Linecode=1P_UG_AL_1/0_Brenau_2

New Line.l(r:p10udm12341-p10ulv12661) Units=km Length=0.0322987 bus1=p10udm12341.1.2 bus2=p10ulv12661.1.2 switch=n enabled=y phases=2 Linecode=1P_UG_AL_1/0_Brenau_2

New Line.l(r:p10udm12338-p10ulv12326) Units=km Length=0.011145900000000002 bus1=p10udm12338.1.2 bus2=p10ulv12326.1.2 switch=n enabled=y phases=2 Linecode=1P_UG_AL_1/0_Brenau_2

New Line.l(r:p10udm12338-p10udm12341) Units=km Length=0.0378978 bus1=p10udm12341.1.2 bus2=p10udm12338.1.2 switch=n enabled=y phases=2 Linecode=1P_UG_AL_1/0_Brenau_2

New Line.l(r:p10udm12341-p10udt3733lv) Units=km Length=0.0156878 bus1=p10udt3733lv.1.2 bus2=p10udm12341.1.2 switch=n enabled=y phases=2 Linecode=1P_UG_AL_1/0_Brenau_2

New Line.l(r:p10udt3735lv-p10ulv12396) Units=km Length=0.00929647 bus1=p10udt3735lv.1.2 bus2=p10ulv12396.1.2 switch=n enabled=y phases=2 Linecode=1P_OH_AL_2/0_Rucina_2

New Line.l(r:p10udm12345-p10ulv12287) Units=km Length=0.00652442 bus1=p10udm12345.1.2 bus2=p10ulv12287.1.2 switch=n enabled=y phases=2 Linecode=1P_OH_AL_2/0_Rucina_2

New Line.l(r:p10udm12345-p10udt3735lv) Units=km Length=0.0164047 bus1=p10udt3735lv.1.2 bus2=p10udm12345.1.2 switch=n enabled=y phases=2 Linecode=1P_OH_AL_2/0_Rucina_2

New Line.l(r:p10udt3736lv-p10ulv12288) Units=km Length=0.05663580000000001 bus1=p10udt3736lv.1.2 bus2=p10ulv12288.1.2 switch=n enabled=y phases=2 Linecode=1P_UG_AL_1/0_Brenau_2

New Line.l(r:p10udt3737lv-p10ulv12484) Units=km Length=0.0377667 bus1=p10udt3737lv.1.2 bus2=p10ulv12484.1.2 switch=n enabled=y phases=2 Linecode=1P_UG_AL_1/0_Brenau_2

New Line.l(r:p10udm12348-p10ulv12290) Units=km Length=0.0114939 bus1=p10udm12348.1.2 bus2=p10ulv12290.1.2 switch=n enabled=y phases=2 Linecode=1P_UG_AL_1/0_Brenau_2

New Line.l(r:p10udm12348-p10ulv12400) Units=km Length=0.0256346 bus1=p10udm12348.1.2 bus2=p10ulv12400.1.2 switch=n enabled=y phases=2 Linecode=1P_UG_AL_1/0_Brenau_2

New Line.l(r:p10udm12352-p10ulv12513) Units=km Length=0.0149013 bus1=p10udm12352.1.2 bus2=p10ulv12513.1.2 switch=n enabled=y phases=2 Linecode=1P_UG_AL_1/0_Brenau_2

New Line.l(r:p10udm12348-p10udm12352) Units=km Length=0.00978001 bus1=p10udm12348.1.2 bus2=p10udm12352.1.2 switch=n enabled=y phases=2 Linecode=1P_UG_AL_1/0_Brenau_2

New Line.l(r:p10udm12348-p10udt3737lv) Units=km Length=0.01955 bus1=p10udt3737lv.1.2 bus2=p10udm12348.1.2 switch=n enabled=y phases=2 Linecode=1P_UG_AL_1/0_Brenau_2

New Line.l(r:p10udm12349-p10ulv12368) Units=km Length=0.0178631 bus1=p10udm12349.1.2 bus2=p10ulv12368.1.2 switch=n enabled=y phases=2 Linecode=1P_UG_AL_1/0_Brenau_2

New Line.l(r:p10udm12349-p10udt3737lv) Units=km Length=0.03909 bus1=p10udt3737lv.1.2 bus2=p10udm12349.1.2 switch=n enabled=y phases=2 Linecode=1P_UG_AL_1/0_Brenau_2

New Line.l(r:p10udm12365-p10ulv12358) Units=km Length=0.00520954 bus1=p10udm12365.1.2 bus2=p10ulv12358.1.2 switch=n enabled=y phases=2 Linecode=1P_OH_AL_2/0_Rucina_2

New Line.l(r:p10udm12366-p10ulv12437) Units=km Length=0.00951488 bus1=p10udm12366.1.2 bus2=p10ulv12437.1.2 switch=n enabled=y phases=2 Linecode=1P_OH_AL_2/0_Rucina_2

New Line.l(r:p10udm12365-p10udm12366) Units=km Length=0.0336257 bus1=p10udm12365.1.2 bus2=p10udm12366.1.2 switch=n enabled=y phases=2 Linecode=1P_OH_AL_4/0_Zuzara_2

New Line.l(r:p10udm12365-p10udt3740lv) Units=km Length=0.0370468 bus1=p10udt3740lv.1.2 bus2=p10udm12365.1.2 switch=n enabled=y phases=2 Linecode=1P_OH_AL_4/0_Zuzara_2

New Line.l(r:p10udm12368-p10ulv12534) Units=km Length=0.004202770000000001 bus1=p10udm12368.1.2 bus2=p10ulv12534.1.2 switch=n enabled=y phases=2 Linecode=1P_OH_AL_2/0_Rucina_2

New Line.l(r:p10udm12364-p10ulv12293) Units=km Length=0.00908738 bus1=p10udm12364.1.2 bus2=p10ulv12293.1.2 switch=n enabled=y phases=2 Linecode=1P_OH_AL_2/0_Rucina_2

New Line.l(r:p10udm12364-p10ulv12497) Units=km Length=0.00657027 bus1=p10udm12364.1.2 bus2=p10ulv12497.1.2 switch=n enabled=y phases=2 Linecode=1P_OH_AL_2/0_Rucina_2

New Line.l(r:p10udm12364-p10udm12368) Units=km Length=0.0193976 bus1=p10udm12368.1.2 bus2=p10udm12364.1.2 switch=n enabled=y phases=2 Linecode=1P_OH_AL_2/0_Rucina_2

New Line.l(r:p10udm12368-p10udt3740lv) Units=km Length=0.019387700000000004 bus1=p10udt3740lv.1.2 bus2=p10udm12368.1.2 switch=n enabled=y phases=2 Linecode=1P_OH_AL_2/0_Rucina_2

New Line.l(r:p10udt3741lv-p10ulv12304) Units=km Length=0.0552917 bus1=p10udt3741lv.1.2 bus2=p10ulv12304.1.2 switch=n enabled=y phases=2 Linecode=1P_OH_AL_4/0_Zuzara_2

New Line.l(r:p10udm12369-p10ulv12294) Units=km Length=0.00711253 bus1=p10udm12369.1.2 bus2=p10ulv12294.1.2 switch=n enabled=y phases=2 Linecode=1P_OH_AL_2/0_Rucina_2

New Line.l(r:p10udm12369-p10udt3741lv) Units=km Length=0.0138853 bus1=p10udt3741lv.1.2 bus2=p10udm12369.1.2 switch=n enabled=y phases=2 Linecode=1P_OH_AL_2/0_Rucina_2

New Line.l(r:p10udm12372-p10ulv12473) Units=km Length=0.0135856 bus1=p10udm12372.1.2 bus2=p10ulv12473.1.2 switch=n enabled=y phases=2 Linecode=1P_UG_AL_1/0_Brenau_2

New Line.l(r:p10udm12376-p10ulv12611) Units=km Length=0.012675 bus1=p10udm12376.1.2 bus2=p10ulv12611.1.2 switch=n enabled=y phases=2 Linecode=1P_UG_AL_1/0_Brenau_2

New Line.l(r:p10udm12377-p10ulv12642) Units=km Length=0.0109144 bus1=p10udm12377.1.2 bus2=p10ulv12642.1.2 switch=n enabled=y phases=2 Linecode=1P_UG_AL_1/0_Brenau_2

New Line.l(r:p10udm12376-p10udm12377) Units=km Length=0.0287803 bus1=p10udm12376.1.2 bus2=p10udm12377.1.2 switch=n enabled=y phases=2 Linecode=1P_UG_AL_1/0_Brenau_2

New Line.l(r:p10udm12372-p10udm12376) Units=km Length=0.00960009 bus1=p10udm12372.1.2 bus2=p10udm12376.1.2 switch=n enabled=y phases=2 Linecode=1P_UG_AL_1/0_Brenau_2

New Line.l(r:p10udm12372-p10udt3742lv) Units=km Length=0.00960009 bus1=p10udt3742lv.1.2 bus2=p10udm12372.1.2 switch=n enabled=y phases=2 Linecode=1P_UG_AL_1/0_Brenau_2

New Line.l(r:p10udm12373-p10ulv12502) Units=km Length=0.016053 bus1=p10udm12373.1.2 bus2=p10ulv12502.1.2 switch=n enabled=y phases=2 Linecode=1P_UG_AL_1/0_Brenau_2

New Line.l(r:p10udm12373-p10ulv12604) Units=km Length=0.0125864 bus1=p10udm12373.1.2 bus2=p10ulv12604.1.2 switch=n enabled=y phases=2 Linecode=1P_UG_AL_1/0_Brenau_2

New Line.l(r:p10udm12374-p10ulv12586) Units=km Length=0.0140542 bus1=p10udm12374.1.2 bus2=p10ulv12586.1.2 switch=n enabled=y phases=2 Linecode=1P_UG_AL_1/0_Brenau_2

New Line.l(r:p10udm12371-p10ulv12296) Units=km Length=0.0137915 bus1=p10udm12371.1.2 bus2=p10ulv12296.1.2 switch=n enabled=y phases=2 Linecode=1P_UG_AL_1/0_Brenau_2

New Line.l(r:p10udm12371-p10udm12374) Units=km Length=0.009590100000000002 bus1=p10udm12374.1.2 bus2=p10udm12371.1.2 switch=n enabled=y phases=2 Linecode=1P_UG_AL_1/0_Brenau_2

New Line.l(r:p10udm12373-p10udm12374) Units=km Length=0.00960009 bus1=p10udm12373.1.2 bus2=p10udm12374.1.2 switch=n enabled=y phases=2 Linecode=1P_UG_AL_1/0_Brenau_2

New Line.l(r:p10udm12373-p10udt3742lv) Units=km Length=0.009589650000000002 bus1=p10udt3742lv.1.2 bus2=p10udm12373.1.2 switch=n enabled=y phases=2 Linecode=1P_UG_AL_1/0_Brenau_2

New Line.l(r:p10udt3745lv-p10ulv12299) Units=km Length=0.00371769 bus1=p10udt3745lv.1.2 bus2=p10ulv12299.1.2 switch=n enabled=y phases=2 Linecode=1P_OH_AL_4_Periwinkle_2

New Line.l(r:p10udt3746lv-p10ulv12352) Units=km Length=0.00542628 bus1=p10udt3746lv.1.2 bus2=p10ulv12352.1.2 switch=n enabled=y phases=2 Linecode=1P_OH_AL_2/0_Rucina_2

New Line.l(r:p10udm12384-p10ulv12300) Units=km Length=0.00734205 bus1=p10udm12384.1.2 bus2=p10ulv12300.1.2 switch=n enabled=y phases=2 Linecode=1P_OH_AL_2/0_Rucina_2

New Line.l(r:p10udm12384-p10udt3746lv) Units=km Length=0.0360056 bus1=p10udt3746lv.1.2 bus2=p10udm12384.1.2 switch=n enabled=y phases=2 Linecode=1P_OH_AL_4/0_Zuzara_2

New Line.l(r:p10udt3748lv-p10ulv12726) Units=km Length=0.0151491 bus1=p10udt3748lv.1.2 bus2=p10ulv12726.1.2 switch=n enabled=y phases=2 Linecode=1P_UG_AL_1/0_Brenau_2

New Line.l(r:p10udm12392-p10ulv12391) Units=km Length=0.0136384 bus1=p10udm12392.1.2 bus2=p10ulv12391.1.2 switch=n enabled=y phases=2 Linecode=1P_UG_AL_1/0_Brenau_2

New Line.l(r:p10udm12401-p10ulv15424) Units=km Length=0.0180883 bus1=p10udm12401.1.2 bus2=p10ulv15424.1.2 switch=n enabled=y phases=2 Linecode=1P_UG_AL_1/0_Brenau_2

New Line.l(r:p10udm12391-p10ulv12379) Units=km Length=0.0149417 bus1=p10udm12391.1.2 bus2=p10ulv12379.1.2 switch=n enabled=y phases=2 Linecode=1P_UG_AL_1/0_Brenau_2

New Line.l(r:p10udm12397-p10ulv15175) Units=km Length=0.0164158 bus1=p10udm12397.1.2 bus2=p10ulv15175.1.2 switch=n enabled=y phases=2 Linecode=1P_UG_AL_1/0_Brenau_2

New Line.l(r:p10udm12389-p10ulv12302) Units=km Length=0.015321100000000002 bus1=p10udm12389.1.2 bus2=p10ulv12302.1.2 switch=n enabled=y phases=2 Linecode=1P_UG_AL_1/0_Brenau_2

New Line.l(r:p10udm12390-p10ulv12343) Units=km Length=0.0255396 bus1=p10udm12390.1.2 bus2=p10ulv12343.1.2 switch=n enabled=y phases=2 Linecode=1P_UG_AL_1/0_Brenau_2

New Line.l(r:p10udm12389-p10udm12390) Units=km Length=0.0195901 bus1=p10udm12389.1.2 bus2=p10udm12390.1.2 switch=n enabled=y phases=2 Linecode=1P_UG_AL_1/0_Brenau_2

New Line.l(r:p10udm12389-p10udm12397) Units=km Length=0.00980005 bus1=p10udm12397.1.2 bus2=p10udm12389.1.2 switch=n enabled=y phases=2 Linecode=1P_UG_AL_1/0_Brenau_2

New Line.l(r:p10udm12391-p10udm12397) Units=km Length=0.00979005 bus1=p10udm12391.1.2 bus2=p10udm12397.1.2 switch=n enabled=y phases=2 Linecode=1P_UG_AL_1/0_Brenau_2

New Line.l(r:p10udm12391-p10udm12401) Units=km Length=0.00980002 bus1=p10udm12401.1.2 bus2=p10udm12391.1.2 switch=n enabled=y phases=2 Linecode=1P_UG_AL_1/0_Brenau_2

New Line.l(r:p10udm12392-p10udm12401) Units=km Length=0.00979005 bus1=p10udm12392.1.2 bus2=p10udm12401.1.2 switch=n enabled=y phases=2 Linecode=1P_UG_AL_1/0_Brenau_2

New Line.l(r:p10udm12392-p10udt3748lv) Units=km Length=0.00980005 bus1=p10udt3748lv.1.2 bus2=p10udm12392.1.2 switch=n enabled=y phases=2 Linecode=1P_UG_AL_2/0_Converse_2

New Line.l(r:p10udm12400-p10ulv15354) Units=km Length=0.0173151 bus1=p10udm12400.1.2 bus2=p10ulv15354.1.2 switch=n enabled=y phases=2 Linecode=1P_UG_AL_1/0_Brenau_2

New Line.l(r:p10udm12394-p10ulv12700) Units=km Length=0.0143634 bus1=p10udm12394.1.2 bus2=p10ulv12700.1.2 switch=n enabled=y phases=2 Linecode=1P_UG_AL_1/0_Brenau_2
