New Load.load_p10ulv10174_1 conn=wye bus1=p10ulv10174.1 kV=0.12 Vminpu=0.8 Vmaxpu=1.2 model=1 kW=1.17001 kvar=0.24001843710200912 Phases=1

New Load.load_p10ulv10174_2 conn=wye bus1=p10ulv10174.2 kV=0.12 Vminpu=0.8 Vmaxpu=1.2 model=1 kW=1.17001 kvar=0.24001843710200912 Phases=1

New Load.load_p10ulv10176_1 conn=wye bus1=p10ulv10176.1 kV=0.12 Vminpu=0.8 Vmaxpu=1.2 model=1 kW=1.565015 kvar=0.3202381785154648 Phases=1

New Load.load_p10ulv10176_2 conn=wye bus1=p10ulv10176.2 kV=0.12 Vminpu=0.8 Vmaxpu=1.2 model=1 kW=1.565015 kvar=0.3202381785154648 Phases=1

New Load.load_p10ulv10177_1 conn=wye bus1=p10ulv10177.1 kV=0.12 Vminpu=0.8 Vmaxpu=1.2 model=1 kW=1.20501 kvar=0.2446877166505815 Phases=1

New Load.load_p10ulv10177_2 conn=wye bus1=p10ulv10177.2 kV=0.12 Vminpu=0.8 Vmaxpu=1.2 model=1 kW=1.20501 kvar=0.2446877166505815 Phases=1

New Load.load_p10ulv10178_1 conn=wye bus1=p10ulv10178.1 kV=0.12 Vminpu=0.8 Vmaxpu=1.2 model=1 kW=0.220002 kvar=0.04501748529551429 Phases=1

New Load.load_p10ulv10178_2 conn=wye bus1=p10ulv10178.2 kV=0.12 Vminpu=0.8 Vmaxpu=1.2 model=1 kW=0.220002 kvar=0.04501748529551429 Phases=1

New Load.load_p10ulv10180 conn=delta bus1=p10ulv10180.1.2.3 kV=0.48 Vminpu=0.8 Vmaxpu=1.2 model=1 kW=35.5504 kvar=7.218816609003104 Phases=3

New Load.load_p10ulv10181_1 conn=wye bus1=p10ulv10181.1 kV=0.12 Vminpu=0.8 Vmaxpu=1.2 model=1 kW=0.570005 kvar=0.11514659243630554 Phases=1

New Load.load_p10ulv10181_2 conn=wye bus1=p10ulv10181.2 kV=0.12 Vminpu=0.8 Vmaxpu=1.2 model=1 kW=0.570005 kvar=0.11514659243630554 Phases=1

New Load.load_p10ulv10182_1 conn=wye bus1=p10ulv10182.1 kV=0.12 Vminpu=0.8 Vmaxpu=1.2 model=1 kW=7.6401 kvar=1.5513884731098564 Phases=1

New Load.load_p10ulv10182_2 conn=wye bus1=p10ulv10182.2 kV=0.12 Vminpu=0.8 Vmaxpu=1.2 model=1 kW=7.6401 kvar=1.5513884731098564 Phases=1

New Load.load_p10ulv10183_1 conn=wye bus1=p10ulv10183.1 kV=0.12 Vminpu=0.8 Vmaxpu=1.2 model=1 kW=0.3600035 kvar=0.07496466002030767 Phases=1

New Load.load_p10ulv10183_2 conn=wye bus1=p10ulv10183.2 kV=0.12 Vminpu=0.8 Vmaxpu=1.2 model=1 kW=0.3600035 kvar=0.07496466002030767 Phases=1

New Load.load_p10ulv10185_1 conn=wye bus1=p10ulv10185.1 kV=0.12 Vminpu=0.8 Vmaxpu=1.2 model=1 kW=5.56005 kvar=1.1290163060580956 Phases=1

New Load.load_p10ulv10185_2 conn=wye bus1=p10ulv10185.2 kV=0.12 Vminpu=0.8 Vmaxpu=1.2 model=1 kW=5.56005 kvar=1.1290163060580956 Phases=1

New Load.load_p10ulv10187_1 conn=wye bus1=p10ulv10187.1 kV=0.12 Vminpu=0.8 Vmaxpu=1.2 model=1 kW=1.325015 kvar=0.26974828589115185 Phases=1

New Load.load_p10ulv10187_2 conn=wye bus1=p10ulv10187.2 kV=0.12 Vminpu=0.8 Vmaxpu=1.2 model=1 kW=1.325015 kvar=0.26974828589115185 Phases=1

New Load.load_p10ulv10188_1 conn=wye bus1=p10ulv10188.1 kV=0.12 Vminpu=0.8 Vmaxpu=1.2 model=1 kW=0.8600100000000002 kvar=0.17508196009045146 Phases=1

New Load.load_p10ulv10188_2 conn=wye bus1=p10ulv10188.2 kV=0.12 Vminpu=0.8 Vmaxpu=1.2 model=1 kW=0.8600100000000002 kvar=0.17508196009045146 Phases=1

New Load.load_p10ulv10190_1 conn=wye bus1=p10ulv10190.1 kV=0.12 Vminpu=0.8 Vmaxpu=1.2 model=1 kW=0.78001 kvar=0.16001297520870603 Phases=1

New Load.load_p10ulv10190_2 conn=wye bus1=p10ulv10190.2 kV=0.12 Vminpu=0.8 Vmaxpu=1.2 model=1 kW=0.78001 kvar=0.16001297520870603 Phases=1

New Load.load_p10ulv10191_1 conn=wye bus1=p10ulv10191.1 kV=0.12 Vminpu=0.8 Vmaxpu=1.2 model=1 kW=1.545015 kvar=0.3153418489873843 Phases=1

New Load.load_p10ulv10191_2 conn=wye bus1=p10ulv10191.2 kV=0.12 Vminpu=0.8 Vmaxpu=1.2 model=1 kW=1.545015 kvar=0.3153418489873843 Phases=1

New Load.load_p10ulv10192_1 conn=wye bus1=p10ulv10192.1 kV=0.12 Vminpu=0.8 Vmaxpu=1.2 model=1 kW=0.590005 kvar=0.12011398921311008 Phases=1

New Load.load_p10ulv10192_2 conn=wye bus1=p10ulv10192.2 kV=0.12 Vminpu=0.8 Vmaxpu=1.2 model=1 kW=0.590005 kvar=0.12011398921311008 Phases=1

New Load.load_p10ulv10194_1 conn=wye bus1=p10ulv10194.1 kV=0.12 Vminpu=0.8 Vmaxpu=1.2 model=1 kW=0.500005 kvar=0.09994974965423842 Phases=1

New Load.load_p10ulv10194_2 conn=wye bus1=p10ulv10194.2 kV=0.12 Vminpu=0.8 Vmaxpu=1.2 model=1 kW=0.500005 kvar=0.09994974965423842 Phases=1

New Load.load_p10ulv10195_1 conn=wye bus1=p10ulv10195.1 kV=0.12 Vminpu=0.8 Vmaxpu=1.2 model=1 kW=1.22001 kvar=0.25027554760115056 Phases=1

New Load.load_p10ulv10195_2 conn=wye bus1=p10ulv10195.2 kV=0.12 Vminpu=0.8 Vmaxpu=1.2 model=1 kW=1.22001 kvar=0.25027554760115056 Phases=1

New Load.load_p10ulv10196_1 conn=wye bus1=p10ulv10196.1 kV=0.12 Vminpu=0.8 Vmaxpu=1.2 model=1 kW=6.06505 kvar=1.2315609296782677 Phases=1

New Load.load_p10ulv10196_2 conn=wye bus1=p10ulv10196.2 kV=0.12 Vminpu=0.8 Vmaxpu=1.2 model=1 kW=6.06505 kvar=1.2315609296782677 Phases=1

New Load.load_p10ulv12266_1 conn=wye bus1=p10ulv12266.1 kV=0.12 Vminpu=0.8 Vmaxpu=1.2 model=1 kW=3.630035 kvar=0.7352085065824269 Phases=1

New Load.load_p10ulv12266_2 conn=wye bus1=p10ulv12266.2 kV=0.12 Vminpu=0.8 Vmaxpu=1.2 model=1 kW=3.630035 kvar=0.7352085065824269 Phases=1

New Load.load_p10ulv12267_1 conn=wye bus1=p10ulv12267.1 kV=0.12 Vminpu=0.8 Vmaxpu=1.2 model=1 kW=1.1850100000000001 kvar=0.24000579398965624 Phases=1

New Load.load_p10ulv12267_2 conn=wye bus1=p10ulv12267.2 kV=0.12 Vminpu=0.8 Vmaxpu=1.2 model=1 kW=1.1850100000000001 kvar=0.24000579398965624 Phases=1

New Load.load_p10ulv12268_1 conn=wye bus1=p10ulv12268.1 kV=0.12 Vminpu=0.8 Vmaxpu=1.2 model=1 kW=6.05505 kvar=1.2295303430719275 Phases=1

New Load.load_p10ulv12268_2 conn=wye bus1=p10ulv12268.2 kV=0.12 Vminpu=0.8 Vmaxpu=1.2 model=1 kW=6.05505 kvar=1.2295303430719275 Phases=1

New Load.load_p10ulv12269_1 conn=wye bus1=p10ulv12269.1 kV=0.12 Vminpu=0.8 Vmaxpu=1.2 model=1 kW=0.690005 kvar=0.14011149113076612 Phases=1

New Load.load_p10ulv12269_2 conn=wye bus1=p10ulv12269.2 kV=0.12 Vminpu=0.8 Vmaxpu=1.2 model=1 kW=0.690005 kvar=0.14011149113076612 Phases=1

New Load.load_p10ulv12271_1 conn=wye bus1=p10ulv12271.1 kV=0.12 Vminpu=0.8 Vmaxpu=1.2 model=1 kW=0.33500350000000007 kvar=0.06993010298367655 Phases=1

New Load.load_p10ulv12271_2 conn=wye bus1=p10ulv12271.2 kV=0.12 Vminpu=0.8 Vmaxpu=1.2 model=1 kW=0.33500350000000007 kvar=0.06993010298367655 Phases=1

New Load.load_p10ulv12273_1 conn=wye bus1=p10ulv12273.1 kV=0.12 Vminpu=0.8 Vmaxpu=1.2 model=1 kW=1.04001 kvar=0.21009220550641156 Phases=1

New Load.load_p10ulv12273_2 conn=wye bus1=p10ulv12273.2 kV=0.12 Vminpu=0.8 Vmaxpu=1.2 model=1 kW=1.04001 kvar=0.21009220550641156 Phases=1

New Load.load_p10ulv12275_1 conn=wye bus1=p10ulv12275.1 kV=0.12 Vminpu=0.8 Vmaxpu=1.2 model=1 kW=0.81501 kvar=0.1650679084223 Phases=1

New Load.load_p10ulv12275_2 conn=wye bus1=p10ulv12275.2 kV=0.12 Vminpu=0.8 Vmaxpu=1.2 model=1 kW=0.81501 kvar=0.1650679084223 Phases=1

New Load.load_p10ulv12277_1 conn=wye bus1=p10ulv12277.1 kV=0.12 Vminpu=0.8 Vmaxpu=1.2 model=1 kW=0.89001 kvar=0.17979073645711227 Phases=1

New Load.load_p10ulv12277_2 conn=wye bus1=p10ulv12277.2 kV=0.12 Vminpu=0.8 Vmaxpu=1.2 model=1 kW=0.89001 kvar=0.17979073645711227 Phases=1

New Load.load_p10ulv12278_1 conn=wye bus1=p10ulv12278.1 kV=0.12 Vminpu=0.8 Vmaxpu=1.2 model=1 kW=0.76501 kvar=0.154941167129414 Phases=1

New Load.load_p10ulv12278_2 conn=wye bus1=p10ulv12278.2 kV=0.12 Vminpu=0.8 Vmaxpu=1.2 model=1 kW=0.76501 kvar=0.154941167129414 Phases=1

New Load.load_p10ulv12279_1 conn=wye bus1=p10ulv12279.1 kV=0.12 Vminpu=0.8 Vmaxpu=1.2 model=1 kW=2.79003 kvar=0.5650782401878133 Phases=1

New Load.load_p10ulv12279_2 conn=wye bus1=p10ulv12279.2 kV=0.12 Vminpu=0.8 Vmaxpu=1.2 model=1 kW=2.79003 kvar=0.5650782401878133 Phases=1

New Load.load_p10ulv12281_1 conn=wye bus1=p10ulv12281.1 kV=0.12 Vminpu=0.8 Vmaxpu=1.2 model=1 kW=0.84501 kvar=0.16980991337253348 Phases=1

New Load.load_p10ulv12281_2 conn=wye bus1=p10ulv12281.2 kV=0.12 Vminpu=0.8 Vmaxpu=1.2 model=1 kW=0.84501 kvar=0.16980991337253348 Phases=1

New Load.load_p10ulv12284_1 conn=wye bus1=p10ulv12284.1 kV=0.12 Vminpu=0.8 Vmaxpu=1.2 model=1 kW=0.315003 kvar=0.06494638510272123 Phases=1

New Load.load_p10ulv12284_2 conn=wye bus1=p10ulv12284.2 kV=0.12 Vminpu=0.8 Vmaxpu=1.2 model=1 kW=0.315003 kvar=0.06494638510272123 Phases=1

New Load.load_p10ulv12285_1 conn=wye bus1=p10ulv12285.1 kV=0.12 Vminpu=0.8 Vmaxpu=1.2 model=1 kW=0.75501 kvar=0.15488441995913532 Phases=1

New Load.load_p10ulv12285_2 conn=wye bus1=p10ulv12285.2 kV=0.12 Vminpu=0.8 Vmaxpu=1.2 model=1 kW=0.75501 kvar=0.15488441995913532 Phases=1

New Load.load_p10ulv12287_1 conn=wye bus1=p10ulv12287.1 kV=0.12 Vminpu=0.8 Vmaxpu=1.2 model=1 kW=2.13502 kvar=0.434650162710103 Phases=1

New Load.load_p10ulv12287_2 conn=wye bus1=p10ulv12287.2 kV=0.12 Vminpu=0.8 Vmaxpu=1.2 model=1 kW=2.13502 kvar=0.434650162710103 Phases=1

New Load.load_p10ulv12288_1 conn=wye bus1=p10ulv12288.1 kV=0.12 Vminpu=0.8 Vmaxpu=1.2 model=1 kW=3.00503 kvar=0.6101973669650019 Phases=1

New Load.load_p10ulv12288_2 conn=wye bus1=p10ulv12288.2 kV=0.12 Vminpu=0.8 Vmaxpu=1.2 model=1 kW=3.00503 kvar=0.6101973669650019 Phases=1

New Load.load_p10ulv12289_1 conn=wye bus1=p10ulv12289.1 kV=0.12 Vminpu=0.8 Vmaxpu=1.2 model=1 kW=0.97001 kvar=0.19492942577069053 Phases=1

New Load.load_p10ulv12289_2 conn=wye bus1=p10ulv12289.2 kV=0.12 Vminpu=0.8 Vmaxpu=1.2 model=1 kW=0.97001 kvar=0.19492942577069053 Phases=1

New Load.load_p10ulv12290_1 conn=wye bus1=p10ulv12290.1 kV=0.12 Vminpu=0.8 Vmaxpu=1.2 model=1 kW=1.13501 kvar=0.22987905269677025 Phases=1

New Load.load_p10ulv12290_2 conn=wye bus1=p10ulv12290.2 kV=0.12 Vminpu=0.8 Vmaxpu=1.2 model=1 kW=1.13501 kvar=0.22987905269677025 Phases=1

New Load.load_p10ulv12293_1 conn=wye bus1=p10ulv12293.1 kV=0.12 Vminpu=0.8 Vmaxpu=1.2 model=1 kW=4.730045 kvar=0.9604766024385687 Phases=1

New Load.load_p10ulv12293_2 conn=wye bus1=p10ulv12293.2 kV=0.12 Vminpu=0.8 Vmaxpu=1.2 model=1 kW=4.730045 kvar=0.9604766024385687 Phases=1

New Load.load_p10ulv12294_1 conn=wye bus1=p10ulv12294.1 kV=0.12 Vminpu=0.8 Vmaxpu=1.2 model=1 kW=4.660045 kvar=0.9438214025641366 Phases=1

New Load.load_p10ulv12294_2 conn=wye bus1=p10ulv12294.2 kV=0.12 Vminpu=0.8 Vmaxpu=1.2 model=1 kW=4.660045 kvar=0.9438214025641366 Phases=1

New Load.load_p10ulv12296_1 conn=wye bus1=p10ulv12296.1 kV=0.12 Vminpu=0.8 Vmaxpu=1.2 model=1 kW=0.77001 kvar=0.15514435189307957 Phases=1

New Load.load_p10ulv12296_2 conn=wye bus1=p10ulv12296.2 kV=0.12 Vminpu=0.8 Vmaxpu=1.2 model=1 kW=0.77001 kvar=0.15514435189307957 Phases=1

New Load.load_p10ulv12297 conn=delta bus1=p10ulv12297.1.2.3 kV=0.48 Vminpu=0.8 Vmaxpu=1.2 model=1 kW=26.670300000000005 kvar=5.415635396707085 Phases=3

New Load.load_p10ulv12299_1 conn=wye bus1=p10ulv12299.1 kV=0.12 Vminpu=0.8 Vmaxpu=1.2 model=1 kW=6.31505 kvar=1.2790175520327918 Phases=1

New Load.load_p10ulv12299_2 conn=wye bus1=p10ulv12299.2 kV=0.12 Vminpu=0.8 Vmaxpu=1.2 model=1 kW=6.31505 kvar=1.2790175520327918 Phases=1

New Load.load_p10ulv12300_1 conn=wye bus1=p10ulv12300.1 kV=0.12 Vminpu=0.8 Vmaxpu=1.2 model=1 kW=7.20005 kvar=1.4582608729168738 Phases=1

New Load.load_p10ulv12300_2 conn=wye bus1=p10ulv12300.2 kV=0.12 Vminpu=0.8 Vmaxpu=1.2 model=1 kW=7.20005 kvar=1.4582608729168738 Phases=1

New Load.load_p10ulv12302_1 conn=wye bus1=p10ulv12302.1 kV=0.12 Vminpu=0.8 Vmaxpu=1.2 model=1 kW=1.04001 kvar=0.21009220550641156 Phases=1

New Load.load_p10ulv12302_2 conn=wye bus1=p10ulv12302.2 kV=0.12 Vminpu=0.8 Vmaxpu=1.2 model=1 kW=1.04001 kvar=0.21009220550641156 Phases=1

New Load.load_p10ulv12304_1 conn=wye bus1=p10ulv12304.1 kV=0.12 Vminpu=0.8 Vmaxpu=1.2 model=1 kW=0.29500300000000007 kvar=0.060057096397208694 Phases=1

New Load.load_p10ulv12304_2 conn=wye bus1=p10ulv12304.2 kV=0.12 Vminpu=0.8 Vmaxpu=1.2 model=1 kW=0.29500300000000007 kvar=0.060057096397208694 Phases=1

New Load.load_p10ulv12307_1 conn=wye bus1=p10ulv12307.1 kV=0.12 Vminpu=0.8 Vmaxpu=1.2 model=1 kW=0.80501 kvar=0.16514153045827676 Phases=1

New Load.load_p10ulv12307_2 conn=wye bus1=p10ulv12307.2 kV=0.12 Vminpu=0.8 Vmaxpu=1.2 model=1 kW=0.80501 kvar=0.16514153045827676 Phases=1

New Load.load_p10ulv12311_1 conn=wye bus1=p10ulv12311.1 kV=0.12 Vminpu=0.8 Vmaxpu=1.2 model=1 kW=0.4300045 kvar=0.0850399568917525 Phases=1

New Load.load_p10ulv12311_2 conn=wye bus1=p10ulv12311.2 kV=0.12 Vminpu=0.8 Vmaxpu=1.2 model=1 kW=0.4300045 kvar=0.0850399568917525 Phases=1

New Load.load_p10ulv12313_1 conn=wye bus1=p10ulv12313.1 kV=0.12 Vminpu=0.8 Vmaxpu=1.2 model=1 kW=1.2750150000000002 kvar=0.2602340997250187 Phases=1

New Load.load_p10ulv12313_2 conn=wye bus1=p10ulv12313.2 kV=0.12 Vminpu=0.8 Vmaxpu=1.2 model=1 kW=1.2750150000000002 kvar=0.2602340997250187 Phases=1

New Load.load_p10ulv12315_1 conn=wye bus1=p10ulv12315.1 kV=0.12 Vminpu=0.8 Vmaxpu=1.2 model=1 kW=1.280015 kvar=0.25991813149143494 Phases=1

New Load.load_p10ulv12315_2 conn=wye bus1=p10ulv12315.2 kV=0.12 Vminpu=0.8 Vmaxpu=1.2 model=1 kW=1.280015 kvar=0.25991813149143494 Phases=1

New Load.load_p10ulv12317 conn=delta bus1=p10ulv12317.1.2.3 kV=0.48 Vminpu=0.8 Vmaxpu=1.2 model=1 kW=27.010300000000004 kvar=5.484675341322647 Phases=3

New Load.load_p10ulv12318_1 conn=wye bus1=p10ulv12318.1 kV=0.12 Vminpu=0.8 Vmaxpu=1.2 model=1 kW=0.745005 kvar=0.15010625560980215 Phases=1

New Load.load_p10ulv12318_2 conn=wye bus1=p10ulv12318.2 kV=0.12 Vminpu=0.8 Vmaxpu=1.2 model=1 kW=0.745005 kvar=0.15010625560980215 Phases=1

New Load.load_p10ulv12323_1 conn=wye bus1=p10ulv12323.1 kV=0.12 Vminpu=0.8 Vmaxpu=1.2 model=1 kW=1.11501 kvar=0.22524294003106118 Phases=1

New Load.load_p10ulv12323_2 conn=wye bus1=p10ulv12323.2 kV=0.12 Vminpu=0.8 Vmaxpu=1.2 model=1 kW=1.11501 kvar=0.22524294003106118 Phases=1

New Load.load_p10ulv12324 conn=delta bus1=p10ulv12324.1.2.3 kV=0.48 Vminpu=0.8 Vmaxpu=1.2 model=1 kW=33.1303 kvar=6.727394344402752 Phases=3

New Load.load_p10ulv12326_1 conn=wye bus1=p10ulv12326.1 kV=0.12 Vminpu=0.8 Vmaxpu=1.2 model=1 kW=1.16001 kvar=0.23494242334321322 Phases=1

New Load.load_p10ulv12326_2 conn=wye bus1=p10ulv12326.2 kV=0.12 Vminpu=0.8 Vmaxpu=1.2 model=1 kW=1.16001 kvar=0.23494242334321322 Phases=1

New Load.load_p10ulv12327_1 conn=wye bus1=p10ulv12327.1 kV=0.12 Vminpu=0.8 Vmaxpu=1.2 model=1 kW=2.94003 kvar=0.5954584640664713 Phases=1

New Load.load_p10ulv12327_2 conn=wye bus1=p10ulv12327.2 kV=0.12 Vminpu=0.8 Vmaxpu=1.2 model=1 kW=2.94003 kvar=0.5954584640664713 Phases=1

New Load.load_p10ulv12329_1 conn=wye bus1=p10ulv12329.1 kV=0.12 Vminpu=0.8 Vmaxpu=1.2 model=1 kW=5.67505 kvar=1.1553340979887632 Phases=1

New Load.load_p10ulv12329_2 conn=wye bus1=p10ulv12329.2 kV=0.12 Vminpu=0.8 Vmaxpu=1.2 model=1 kW=5.67505 kvar=1.1553340979887632 Phases=1

New Load.load_p10ulv12330_1 conn=wye bus1=p10ulv12330.1 kV=0.12 Vminpu=0.8 Vmaxpu=1.2 model=1 kW=0.745005 kvar=0.15010625560980215 Phases=1

New Load.load_p10ulv12330_2 conn=wye bus1=p10ulv12330.2 kV=0.12 Vminpu=0.8 Vmaxpu=1.2 model=1 kW=0.745005 kvar=0.15010625560980215 Phases=1

New Load.load_p10ulv12336_1 conn=wye bus1=p10ulv12336.1 kV=0.12 Vminpu=0.8 Vmaxpu=1.2 model=1 kW=0.680005 kvar=0.13984996089752658 Phases=1

New Load.load_p10ulv12336_2 conn=wye bus1=p10ulv12336.2 kV=0.12 Vminpu=0.8 Vmaxpu=1.2 model=1 kW=0.680005 kvar=0.13984996089752658 Phases=1

New Load.load_p10ulv12338_1 conn=wye bus1=p10ulv12338.1 kV=0.12 Vminpu=0.8 Vmaxpu=1.2 model=1 kW=0.94501 kvar=0.18990552329105911 Phases=1

New Load.load_p10ulv12338_2 conn=wye bus1=p10ulv12338.2 kV=0.12 Vminpu=0.8 Vmaxpu=1.2 model=1 kW=0.94501 kvar=0.18990552329105911 Phases=1

New Load.load_p10ulv12340_1 conn=wye bus1=p10ulv12340.1 kV=0.12 Vminpu=0.8 Vmaxpu=1.2 model=1 kW=1.81002 kvar=0.3646892635336059 Phases=1

New Load.load_p10ulv12340_2 conn=wye bus1=p10ulv12340.2 kV=0.12 Vminpu=0.8 Vmaxpu=1.2 model=1 kW=1.81002 kvar=0.3646892635336059 Phases=1

New Load.load_p10ulv12341_1 conn=wye bus1=p10ulv12341.1 kV=0.12 Vminpu=0.8 Vmaxpu=1.2 model=1 kW=8.6551 kvar=1.752959171281148 Phases=1

New Load.load_p10ulv12341_2 conn=wye bus1=p10ulv12341.2 kV=0.12 Vminpu=0.8 Vmaxpu=1.2 model=1 kW=8.6551 kvar=1.752959171281148 Phases=1

New Load.load_p10ulv12342_1 conn=wye bus1=p10ulv12342.1 kV=0.12 Vminpu=0.8 Vmaxpu=1.2 model=1 kW=0.82501 kvar=0.16491743675011897 Phases=1

New Load.load_p10ulv12342_2 conn=wye bus1=p10ulv12342.2 kV=0.12 Vminpu=0.8 Vmaxpu=1.2 model=1 kW=0.82501 kvar=0.16491743675011897 Phases=1

New Load.load_p10ulv12343_1 conn=wye bus1=p10ulv12343.1 kV=0.12 Vminpu=0.8 Vmaxpu=1.2 model=1 kW=0.625005 kvar=0.12493693719592258 Phases=1

New Load.load_p10ulv12343_2 conn=wye bus1=p10ulv12343.2 kV=0.12 Vminpu=0.8 Vmaxpu=1.2 model=1 kW=0.625005 kvar=0.12493693719592258 Phases=1

New Load.load_p10ulv12344 conn=delta bus1=p10ulv12344.1.2.3 kV=0.48 Vminpu=0.8 Vmaxpu=1.2 model=1 kW=23.890199999999997 kvar=4.851112014278488 Phases=3

New Load.load_p10ulv12345_1 conn=wye bus1=p10ulv12345.1 kV=0.12 Vminpu=0.8 Vmaxpu=1.2 model=1 kW=3.675035 kvar=0.7443225737460243 Phases=1

New Load.load_p10ulv12345_2 conn=wye bus1=p10ulv12345.2 kV=0.12 Vminpu=0.8 Vmaxpu=1.2 model=1 kW=3.675035 kvar=0.7443225737460243 Phases=1

New Load.load_p10ulv12347_1 conn=wye bus1=p10ulv12347.1 kV=0.12 Vminpu=0.8 Vmaxpu=1.2 model=1 kW=0.385004 kvar=0.07997333434462686 Phases=1

New Load.load_p10ulv12347_2 conn=wye bus1=p10ulv12347.2 kV=0.12 Vminpu=0.8 Vmaxpu=1.2 model=1 kW=0.385004 kvar=0.07997333434462686 Phases=1

New Load.load_p10ulv12348_1 conn=wye bus1=p10ulv12348.1 kV=0.12 Vminpu=0.8 Vmaxpu=1.2 model=1 kW=2.84003 kvar=0.5752049814806992 Phases=1

New Load.load_p10ulv12348_2 conn=wye bus1=p10ulv12348.2 kV=0.12 Vminpu=0.8 Vmaxpu=1.2 model=1 kW=2.84003 kvar=0.5752049814806992 Phases=1

New Load.load_p10ulv12352_1 conn=wye bus1=p10ulv12352.1 kV=0.12 Vminpu=0.8 Vmaxpu=1.2 model=1 kW=4.375045 kvar=0.8906773805931664 Phases=1

New Load.load_p10ulv12352_2 conn=wye bus1=p10ulv12352.2 kV=0.12 Vminpu=0.8 Vmaxpu=1.2 model=1 kW=4.375045 kvar=0.8906773805931664 Phases=1

New Load.load_p10ulv12354_1 conn=wye bus1=p10ulv12354.1 kV=0.12 Vminpu=0.8 Vmaxpu=1.2 model=1 kW=5.340050000000001 kvar=1.0843434007186148 Phases=1

New Load.load_p10ulv12354_2 conn=wye bus1=p10ulv12354.2 kV=0.12 Vminpu=0.8 Vmaxpu=1.2 model=1 kW=5.340050000000001 kvar=1.0843434007186148 Phases=1

New Load.load_p10ulv12355_1 conn=wye bus1=p10ulv12355.1 kV=0.12 Vminpu=0.8 Vmaxpu=1.2 model=1 kW=8.8351 kvar=1.7940435725674913 Phases=1

New Load.load_p10ulv12355_2 conn=wye bus1=p10ulv12355.2 kV=0.12 Vminpu=0.8 Vmaxpu=1.2 model=1 kW=8.8351 kvar=1.7940435725674913 Phases=1

New Load.load_p10ulv12356_1 conn=wye bus1=p10ulv12356.1 kV=0.12 Vminpu=0.8 Vmaxpu=1.2 model=1 kW=1.79002 kvar=0.3653480493874801 Phases=1

New Load.load_p10ulv12356_2 conn=wye bus1=p10ulv12356.2 kV=0.12 Vminpu=0.8 Vmaxpu=1.2 model=1 kW=1.79002 kvar=0.3653480493874801 Phases=1

New Load.load_p10ulv12357_1 conn=wye bus1=p10ulv12357.1 kV=0.12 Vminpu=0.8 Vmaxpu=1.2 model=1 kW=0.83001 kvar=0.16983919678061932 Phases=1

New Load.load_p10ulv12357_2 conn=wye bus1=p10ulv12357.2 kV=0.12 Vminpu=0.8 Vmaxpu=1.2 model=1 kW=0.83001 kvar=0.16983919678061932 Phases=1

New Load.load_p10ulv12358_1 conn=wye bus1=p10ulv12358.1 kV=0.12 Vminpu=0.8 Vmaxpu=1.2 model=1 kW=1.0600100000000001 kvar=0.2152442108586509 Phases=1

New Load.load_p10ulv12358_2 conn=wye bus1=p10ulv12358.2 kV=0.12 Vminpu=0.8 Vmaxpu=1.2 model=1 kW=1.0600100000000001 kvar=0.2152442108586509 Phases=1

New Load.load_p10ulv12359_1 conn=wye bus1=p10ulv12359.1 kV=0.12 Vminpu=0.8 Vmaxpu=1.2 model=1 kW=1.280015 kvar=0.25991813149143494 Phases=1

New Load.load_p10ulv12359_2 conn=wye bus1=p10ulv12359.2 kV=0.12 Vminpu=0.8 Vmaxpu=1.2 model=1 kW=1.280015 kvar=0.25991813149143494 Phases=1

New Load.load_p10ulv12365_1 conn=wye bus1=p10ulv12365.1 kV=0.12 Vminpu=0.8 Vmaxpu=1.2 model=1 kW=0.4700045 kvar=0.09494551206520921 Phases=1

New Load.load_p10ulv12365_2 conn=wye bus1=p10ulv12365.2 kV=0.12 Vminpu=0.8 Vmaxpu=1.2 model=1 kW=0.4700045 kvar=0.09494551206520921 Phases=1

New Load.load_p10ulv12367_1 conn=wye bus1=p10ulv12367.1 kV=0.12 Vminpu=0.8 Vmaxpu=1.2 model=1 kW=0.85501 kvar=0.17495477360441117 Phases=1

New Load.load_p10ulv12367_2 conn=wye bus1=p10ulv12367.2 kV=0.12 Vminpu=0.8 Vmaxpu=1.2 model=1 kW=0.85501 kvar=0.17495477360441117 Phases=1

New Load.load_p10ulv12368_1 conn=wye bus1=p10ulv12368.1 kV=0.12 Vminpu=0.8 Vmaxpu=1.2 model=1 kW=0.565005 kvar=0.11502445653062815 Phases=1

New Load.load_p10ulv12368_2 conn=wye bus1=p10ulv12368.2 kV=0.12 Vminpu=0.8 Vmaxpu=1.2 model=1 kW=0.565005 kvar=0.11502445653062815 Phases=1

New Load.load_p10ulv12379_1 conn=wye bus1=p10ulv12379.1 kV=0.12 Vminpu=0.8 Vmaxpu=1.2 model=1 kW=1.02501 kvar=0.20974069600619585 Phases=1

New Load.load_p10ulv12379_2 conn=wye bus1=p10ulv12379.2 kV=0.12 Vminpu=0.8 Vmaxpu=1.2 model=1 kW=1.02501 kvar=0.20974069600619585 Phases=1

New Load.load_p10ulv12380_1 conn=wye bus1=p10ulv12380.1 kV=0.12 Vminpu=0.8 Vmaxpu=1.2 model=1 kW=0.700005 kvar=0.1399292497209331 Phases=1

New Load.load_p10ulv12380_2 conn=wye bus1=p10ulv12380.2 kV=0.12 Vminpu=0.8 Vmaxpu=1.2 model=1 kW=0.700005 kvar=0.1399292497209331 Phases=1

New Load.load_p10ulv12381_1 conn=wye bus1=p10ulv12381.1 kV=0.12 Vminpu=0.8 Vmaxpu=1.2 model=1 kW=0.745005 kvar=0.15010625560980215 Phases=1

New Load.load_p10ulv12381_2 conn=wye bus1=p10ulv12381.2 kV=0.12 Vminpu=0.8 Vmaxpu=1.2 model=1 kW=0.745005 kvar=0.15010625560980215 Phases=1

New Load.load_p10ulv12384_1 conn=wye bus1=p10ulv12384.1 kV=0.12 Vminpu=0.8 Vmaxpu=1.2 model=1 kW=1.395015 kvar=0.2847264327305145 Phases=1

New Load.load_p10ulv12384_2 conn=wye bus1=p10ulv12384.2 kV=0.12 Vminpu=0.8 Vmaxpu=1.2 model=1 kW=1.395015 kvar=0.2847264327305145 Phases=1

New Load.load_p10ulv12385_1 conn=wye bus1=p10ulv12385.1 kV=0.12 Vminpu=0.8 Vmaxpu=1.2 model=1 kW=0.220002 kvar=0.04501748529551429 Phases=1

New Load.load_p10ulv12385_2 conn=wye bus1=p10ulv12385.2 kV=0.12 Vminpu=0.8 Vmaxpu=1.2 model=1 kW=0.220002 kvar=0.04501748529551429 Phases=1

New Load.load_p10ulv12386_1 conn=wye bus1=p10ulv12386.1 kV=0.12 Vminpu=0.8 Vmaxpu=1.2 model=1 kW=0.2500025 kvar=0.04997487482711921 Phases=1

New Load.load_p10ulv12386_2 conn=wye bus1=p10ulv12386.2 kV=0.12 Vminpu=0.8 Vmaxpu=1.2 model=1 kW=0.2500025 kvar=0.04997487482711921 Phases=1

New Load.load_p10ulv12387_1 conn=wye bus1=p10ulv12387.1 kV=0.12 Vminpu=0.8 Vmaxpu=1.2 model=1 kW=0.81501 kvar=0.1650679084223 Phases=1

New Load.load_p10ulv12387_2 conn=wye bus1=p10ulv12387.2 kV=0.12 Vminpu=0.8 Vmaxpu=1.2 model=1 kW=0.81501 kvar=0.1650679084223 Phases=1

New Load.load_p10ulv12389_1 conn=wye bus1=p10ulv12389.1 kV=0.12 Vminpu=0.8 Vmaxpu=1.2 model=1 kW=0.715005 kvar=0.14518795764661624 Phases=1

New Load.load_p10ulv12389_2 conn=wye bus1=p10ulv12389.2 kV=0.12 Vminpu=0.8 Vmaxpu=1.2 model=1 kW=0.715005 kvar=0.14518795764661624 Phases=1

New Load.load_p10ulv12390_1 conn=wye bus1=p10ulv12390.1 kV=0.12 Vminpu=0.8 Vmaxpu=1.2 model=1 kW=0.595005 kvar=0.11988372241677617 Phases=1

New Load.load_p10ulv12390_2 conn=wye bus1=p10ulv12390.2 kV=0.12 Vminpu=0.8 Vmaxpu=1.2 model=1 kW=0.595005 kvar=0.11988372241677617 Phases=1

New Load.load_p10ulv12391_1 conn=wye bus1=p10ulv12391.1 kV=0.12 Vminpu=0.8 Vmaxpu=1.2 model=1 kW=0.88501 kvar=0.18017149277293337 Phases=1

New Load.load_p10ulv12391_2 conn=wye bus1=p10ulv12391.2 kV=0.12 Vminpu=0.8 Vmaxpu=1.2 model=1 kW=0.88501 kvar=0.18017149277293337 Phases=1

New Load.load_p10ulv12393_1 conn=wye bus1=p10ulv12393.1 kV=0.12 Vminpu=0.8 Vmaxpu=1.2 model=1 kW=1.580015 kvar=0.3200080628775847 Phases=1

New Load.load_p10ulv12393_2 conn=wye bus1=p10ulv12393.2 kV=0.12 Vminpu=0.8 Vmaxpu=1.2 model=1 kW=1.580015 kvar=0.3200080628775847 Phases=1

New Load.load_p10ulv12394_1 conn=wye bus1=p10ulv12394.1 kV=0.12 Vminpu=0.8 Vmaxpu=1.2 model=1 kW=2.355025 kvar=0.47943906822248045 Phases=1

New Load.load_p10ulv12394_2 conn=wye bus1=p10ulv12394.2 kV=0.12 Vminpu=0.8 Vmaxpu=1.2 model=1 kW=2.355025 kvar=0.47943906822248045 Phases=1

New Load.load_p10ulv12396_1 conn=wye bus1=p10ulv12396.1 kV=0.12 Vminpu=0.8 Vmaxpu=1.2 model=1 kW=3.97004 kvar=0.804071360048181 Phases=1

New Load.load_p10ulv12396_2 conn=wye bus1=p10ulv12396.2 kV=0.12 Vminpu=0.8 Vmaxpu=1.2 model=1 kW=3.97004 kvar=0.804071360048181 Phases=1

New Load.load_p10ulv12400_1 conn=wye bus1=p10ulv12400.1 kV=0.12 Vminpu=0.8 Vmaxpu=1.2 model=1 kW=0.745005 kvar=0.15010625560980215 Phases=1

New Load.load_p10ulv12400_2 conn=wye bus1=p10ulv12400.2 kV=0.12 Vminpu=0.8 Vmaxpu=1.2 model=1 kW=0.745005 kvar=0.15010625560980215 Phases=1

New Load.load_p10ulv12401_1 conn=wye bus1=p10ulv12401.1 kV=0.12 Vminpu=0.8 Vmaxpu=1.2 model=1 kW=3.92504 kvar=0.7949572928845836 Phases=1

New Load.load_p10ulv12401_2 conn=wye bus1=p10ulv12401.2 kV=0.12 Vminpu=0.8 Vmaxpu=1.2 model=1 kW=3.92504 kvar=0.7949572928845836 Phases=1

New Load.load_p10ulv12403_1 conn=wye bus1=p10ulv12403.1 kV=0.12 Vminpu=0.8 Vmaxpu=1.2 model=1 kW=1.5250150000000002 kvar=0.30966750334676607 Phases=1

New Load.load_p10ulv12403_2 conn=wye bus1=p10ulv12403.2 kV=0.12 Vminpu=0.8 Vmaxpu=1.2 model=1 kW=1.5250150000000002 kvar=0.30966750334676607 Phases=1

New Load.load_p10ulv12404_1 conn=wye bus1=p10ulv12404.1 kV=0.12 Vminpu=0.8 Vmaxpu=1.2 model=1 kW=2.300025 kvar=0.4646275756674304 Phases=1

New Load.load_p10ulv12404_2 conn=wye bus1=p10ulv12404.2 kV=0.12 Vminpu=0.8 Vmaxpu=1.2 model=1 kW=2.300025 kvar=0.4646275756674304 Phases=1

New Load.load_p10ulv12405_1 conn=wye bus1=p10ulv12405.1 kV=0.12 Vminpu=0.8 Vmaxpu=1.2 model=1 kW=2.375025 kvar=0.4847491933031475 Phases=1

New Load.load_p10ulv12405_2 conn=wye bus1=p10ulv12405.2 kV=0.12 Vminpu=0.8 Vmaxpu=1.2 model=1 kW=2.375025 kvar=0.4847491933031475 Phases=1

New Load.load_p10ulv12410_1 conn=wye bus1=p10ulv12410.1 kV=0.12 Vminpu=0.8 Vmaxpu=1.2 model=1 kW=0.78501 kvar=0.1598133620430056 Phases=1

New Load.load_p10ulv12410_2 conn=wye bus1=p10ulv12410.2 kV=0.12 Vminpu=0.8 Vmaxpu=1.2 model=1 kW=0.78501 kvar=0.1598133620430056 Phases=1

New Load.load_p10ulv12411_1 conn=wye bus1=p10ulv12411.1 kV=0.12 Vminpu=0.8 Vmaxpu=1.2 model=1 kW=0.290003 kvar=0.05994151579317487 Phases=1

New Load.load_p10ulv12411_2 conn=wye bus1=p10ulv12411.2 kV=0.12 Vminpu=0.8 Vmaxpu=1.2 model=1 kW=0.290003 kvar=0.05994151579317487 Phases=1

New Load.load_p10ulv12414_1 conn=wye bus1=p10ulv12414.1 kV=0.12 Vminpu=0.8 Vmaxpu=1.2 model=1 kW=0.505005 kvar=0.10490003665080959 Phases=1

New Load.load_p10ulv12414_2 conn=wye bus1=p10ulv12414.2 kV=0.12 Vminpu=0.8 Vmaxpu=1.2 model=1 kW=0.505005 kvar=0.10490003665080959 Phases=1

New Load.load_p10ulv12419_1 conn=wye bus1=p10ulv12419.1 kV=0.12 Vminpu=0.8 Vmaxpu=1.2 model=1 kW=8.7801 kvar=1.7828753462326206 Phases=1

New Load.load_p10ulv12419_2 conn=wye bus1=p10ulv12419.2 kV=0.12 Vminpu=0.8 Vmaxpu=1.2 model=1 kW=8.7801 kvar=1.7828753462326206 Phases=1

New Load.load_p10ulv12421_1 conn=wye bus1=p10ulv12421.1 kV=0.12 Vminpu=0.8 Vmaxpu=1.2 model=1 kW=2.19502 kvar=0.44456799345421155 Phases=1

New Load.load_p10ulv12421_2 conn=wye bus1=p10ulv12421.2 kV=0.12 Vminpu=0.8 Vmaxpu=1.2 model=1 kW=2.19502 kvar=0.44456799345421155 Phases=1

New Load.load_p10ulv12422_1 conn=wye bus1=p10ulv12422.1 kV=0.12 Vminpu=0.8 Vmaxpu=1.2 model=1 kW=0.77501 kvar=0.1549225617334453 Phases=1

New Load.load_p10ulv12422_2 conn=wye bus1=p10ulv12422.2 kV=0.12 Vminpu=0.8 Vmaxpu=1.2 model=1 kW=0.77501 kvar=0.1549225617334453 Phases=1

New Load.load_p10ulv12424_1 conn=wye bus1=p10ulv12424.1 kV=0.12 Vminpu=0.8 Vmaxpu=1.2 model=1 kW=1.575015 kvar=0.3198204363784663 Phases=1

New Load.load_p10ulv12424_2 conn=wye bus1=p10ulv12424.2 kV=0.12 Vminpu=0.8 Vmaxpu=1.2 model=1 kW=1.575015 kvar=0.3198204363784663 Phases=1

New Load.load_p10ulv12429_1 conn=wye bus1=p10ulv12429.1 kV=0.12 Vminpu=0.8 Vmaxpu=1.2 model=1 kW=0.685005 kvar=0.14016782808726178 Phases=1

New Load.load_p10ulv12429_2 conn=wye bus1=p10ulv12429.2 kV=0.12 Vminpu=0.8 Vmaxpu=1.2 model=1 kW=0.685005 kvar=0.14016782808726178 Phases=1

New Load.load_p10ulv12430_1 conn=wye bus1=p10ulv12430.1 kV=0.12 Vminpu=0.8 Vmaxpu=1.2 model=1 kW=1.02001 kvar=0.20497723072995336 Phases=1

New Load.load_p10ulv12430_2 conn=wye bus1=p10ulv12430.2 kV=0.12 Vminpu=0.8 Vmaxpu=1.2 model=1 kW=1.02001 kvar=0.20497723072995336 Phases=1

New Load.load_p10ulv12433_1 conn=wye bus1=p10ulv12433.1 kV=0.12 Vminpu=0.8 Vmaxpu=1.2 model=1 kW=1.06501 kvar=0.21514245034796145 Phases=1

New Load.load_p10ulv12433_2 conn=wye bus1=p10ulv12433.2 kV=0.12 Vminpu=0.8 Vmaxpu=1.2 model=1 kW=1.06501 kvar=0.21514245034796145 Phases=1

New Load.load_p10ulv12435_1 conn=wye bus1=p10ulv12435.1 kV=0.12 Vminpu=0.8 Vmaxpu=1.2 model=1 kW=0.82001 kvar=0.16478601089290207 Phases=1

New Load.load_p10ulv12435_2 conn=wye bus1=p10ulv12435.2 kV=0.12 Vminpu=0.8 Vmaxpu=1.2 model=1 kW=0.82001 kvar=0.16478601089290207 Phases=1

New Load.load_p10ulv12437_1 conn=wye bus1=p10ulv12437.1 kV=0.12 Vminpu=0.8 Vmaxpu=1.2 model=1 kW=0.745005 kvar=0.15010625560980215 Phases=1

New Load.load_p10ulv12437_2 conn=wye bus1=p10ulv12437.2 kV=0.12 Vminpu=0.8 Vmaxpu=1.2 model=1 kW=0.745005 kvar=0.15010625560980215 Phases=1

New Load.load_p10ulv12440_1 conn=wye bus1=p10ulv12440.1 kV=0.12 Vminpu=0.8 Vmaxpu=1.2 model=1 kW=8.1001 kvar=1.6447954570014982 Phases=1

New Load.load_p10ulv12440_2 conn=wye bus1=p10ulv12440.2 kV=0.12 Vminpu=0.8 Vmaxpu=1.2 model=1 kW=8.1001 kvar=1.6447954570014982 Phases=1

New Load.load_p10ulv12442 conn=delta bus1=p10ulv12442.1.2.3 kV=0.48 Vminpu=0.8 Vmaxpu=1.2 model=1 kW=33.1403 kvar=6.729424931009093 Phases=3

New Load.load_p10ulv12443 conn=delta bus1=p10ulv12443.1.2.3 kV=0.48 Vminpu=0.8 Vmaxpu=1.2 model=1 kW=22.1502 kvar=4.497789944775323 Phases=3

New Load.load_p10ulv12446_1 conn=wye bus1=p10ulv12294.1 kV=0.12 Vminpu=0.8 Vmaxpu=1.2 model=1 kW=0.555005 kvar=0.11005762096584602 Phases=1

New Load.load_p10ulv12446_2 conn=wye bus1=p10ulv12294.2 kV=0.12 Vminpu=0.8 Vmaxpu=1.2 model=1 kW=0.555005 kvar=0.11005762096584602 Phases=1

New Load.load_p10ulv12448_1 conn=wye bus1=p10ulv12448.1 kV=0.12 Vminpu=0.8 Vmaxpu=1.2 model=1 kW=0.590005 kvar=0.12011398921311008 Phases=1

New Load.load_p10ulv12448_2 conn=wye bus1=p10ulv12448.2 kV=0.12 Vminpu=0.8 Vmaxpu=1.2 model=1 kW=0.590005 kvar=0.12011398921311008 Phases=1

New Load.load_p10ulv12451_1 conn=wye bus1=p10ulv12451.1 kV=0.12 Vminpu=0.8 Vmaxpu=1.2 model=1 kW=0.4550045 kvar=0.08998408869105651 Phases=1
