New Transformer.tr(r:p10udt3085-p10udt3085lv) phases=1 windings=3 %loadloss=0.798816 %Noloadloss=0.472 normhkva=27.5 wdg=1 conn=delta bus=p10udt3085.1.3 Kv=12.47 kva=25.0 EmergHKVA=37.5 %r=0.266272 wdg=2 conn=wye bus=p10udt3085lv.1.0 Kv=0.12 kva=25.0 EmergHKVA=37.5 %r=0.532544 wdg=3 conn=wye bus=p10udt3085lv.0.2 Kv=0.12 kva=25.0 EmergHKVA=37.5 %r=0.532544 XHL=2.4 XLT=2.4 XHT=1.6

New Transformer.tr(r:p10udt3087-p10udt3087lv) phases=1 windings=3 %loadloss=0.49926 %Noloadloss=0.38 normhkva=82.5 wdg=1 conn=delta bus=p10udt3087.1.2 Kv=12.47 kva=75.0 EmergHKVA=112.5 %r=0.16642 wdg=2 conn=wye bus=p10udt3087lv.1.0 Kv=0.12 kva=75.0 EmergHKVA=112.5 %r=0.33284 wdg=3 conn=wye bus=p10udt3087lv.0.2 Kv=0.12 kva=75.0 EmergHKVA=112.5 %r=0.33284 XHL=2.4 XLT=2.4 XHT=1.6

New Transformer.tr(r:p10udt3089-p10udt3089lv) phases=3 windings=2 %loadloss=1.74408 %Noloadloss=0.6 normhkva=82.5 wdg=1 conn=delta Kv=12.47 kva=75.0 EmergHKVA=112.5 %R=0.87204 bus=p10udt3089 wdg=2 conn=delta Kv=0.48 kva=75.0 EmergHKVA=112.5 %R=0.87204 bus=p10udt3089lv XHL=3.2400000000000007

New Transformer.tr(r:p10udt3090-p10udt3090lv) phases=1 windings=3 %loadloss=0.49926 %Noloadloss=0.38 normhkva=82.5 wdg=1 conn=delta bus=p10udt3090.1.3 Kv=12.47 kva=75.0 EmergHKVA=112.5 %r=0.16642 wdg=2 conn=wye bus=p10udt3090lv.1.0 Kv=0.12 kva=75.0 EmergHKVA=112.5 %r=0.33284 wdg=3 conn=wye bus=p10udt3090lv.0.2 Kv=0.12 kva=75.0 EmergHKVA=112.5 %r=0.33284 XHL=2.4 XLT=2.4 XHT=1.6

New Transformer.tr(r:p10udt3092-p10udt3092lv) phases=1 windings=3 %loadloss=0.798816 %Noloadloss=0.472 normhkva=27.5 wdg=1 conn=delta bus=p10udt3092.2.3 Kv=12.47 kva=25.0 EmergHKVA=37.5 %r=0.266272 wdg=2 conn=wye bus=p10udt3092lv.1.0 Kv=0.12 kva=25.0 EmergHKVA=37.5 %r=0.532544 wdg=3 conn=wye bus=p10udt3092lv.0.2 Kv=0.12 kva=25.0 EmergHKVA=37.5 %r=0.532544 XHL=2.4 XLT=2.4 XHT=1.6

New Transformer.tr(r:p10udt3719-p10udt3719lv) phases=1 windings=3 %loadloss=0.798816 %Noloadloss=0.37 normhkva=55.0 wdg=1 conn=delta bus=p10udt3719.1.3 Kv=12.47 kva=50.0 EmergHKVA=75.0 %r=0.266272 wdg=2 conn=wye bus=p10udt3719lv.1.0 Kv=0.12 kva=50.0 EmergHKVA=75.0 %r=0.532544 wdg=3 conn=wye bus=p10udt3719lv.0.2 Kv=0.12 kva=50.0 EmergHKVA=75.0 %r=0.532544 XHL=2.4 XLT=2.4 XHT=1.6

New Transformer.tr(r:p10udt3720-p10udt3720lv) phases=1 windings=3 %loadloss=0.798816 %Noloadloss=0.472 normhkva=27.5 wdg=1 conn=delta bus=p10udt3720.2.3 Kv=12.47 kva=25.0 EmergHKVA=37.5 %r=0.266272 wdg=2 conn=wye bus=p10udt3720lv.1.0 Kv=0.12 kva=25.0 EmergHKVA=37.5 %r=0.532544 wdg=3 conn=wye bus=p10udt3720lv.0.2 Kv=0.12 kva=25.0 EmergHKVA=37.5 %r=0.532544 XHL=2.4 XLT=2.4 XHT=1.6

New Transformer.tr(r:p10udt3721-p10udt3721lv) phases=1 windings=3 %loadloss=0.798816 %Noloadloss=0.472 normhkva=27.5 wdg=1 conn=delta bus=p10udt3721.1.2 Kv=12.47 kva=25.0 EmergHKVA=37.5 %r=0.266272 wdg=2 conn=wye bus=p10udt3721lv.1.0 Kv=0.12 kva=25.0 EmergHKVA=37.5 %r=0.532544 wdg=3 conn=wye bus=p10udt3721lv.0.2 Kv=0.12 kva=25.0 EmergHKVA=37.5 %r=0.532544 XHL=2.4 XLT=2.4 XHT=1.6

New Transformer.tr(r:p10udt3722-p10udt3722lv) phases=1 windings=3 %loadloss=0.798816 %Noloadloss=0.37 normhkva=55.0 wdg=1 conn=delta bus=p10udt3722.2.3 Kv=12.47 kva=50.0 EmergHKVA=75.0 %r=0.266272 wdg=2 conn=wye bus=p10udt3722lv.1.0 Kv=0.12 kva=50.0 EmergHKVA=75.0 %r=0.532544 wdg=3 conn=wye bus=p10udt3722lv.0.2 Kv=0.12 kva=50.0 EmergHKVA=75.0 %r=0.532544 XHL=2.4 XLT=2.4 XHT=1.6

New Transformer.tr(r:p10udt3724-p10udt3724lv) phases=1 windings=3 %loadloss=0.798816 %Noloadloss=0.472 normhkva=27.5 wdg=1 conn=delta bus=p10udt3724.1.2 Kv=12.47 kva=25.0 EmergHKVA=37.5 %r=0.266272 wdg=2 conn=wye bus=p10udt3724lv.1.0 Kv=0.12 kva=25.0 EmergHKVA=37.5 %r=0.532544 wdg=3 conn=wye bus=p10udt3724lv.0.2 Kv=0.12 kva=25.0 EmergHKVA=37.5 %r=0.532544 XHL=2.4 XLT=2.4 XHT=1.6

New Transformer.tr(r:p10udt3726-p10udt3726lv) phases=1 windings=3 %loadloss=0.798816 %Noloadloss=0.37 normhkva=55.0 wdg=1 conn=delta bus=p10udt3726.1.2 Kv=12.47 kva=50.0 EmergHKVA=75.0 %r=0.266272 wdg=2 conn=wye bus=p10udt3726lv.1.0 Kv=0.12 kva=50.0 EmergHKVA=75.0 %r=0.532544 wdg=3 conn=wye bus=p10udt3726lv.0.2 Kv=0.12 kva=50.0 EmergHKVA=75.0 %r=0.532544 XHL=2.4 XLT=2.4 XHT=1.6

New Transformer.tr(r:p10udt3728-p10udt3728lv) phases=1 windings=3 %loadloss=0.798816 %Noloadloss=0.37 normhkva=55.0 wdg=1 conn=delta bus=p10udt3728.2.3 Kv=12.47 kva=50.0 EmergHKVA=75.0 %r=0.266272 wdg=2 conn=wye bus=p10udt3728lv.1.0 Kv=0.12 kva=50.0 EmergHKVA=75.0 %r=0.532544 wdg=3 conn=wye bus=p10udt3728lv.0.2 Kv=0.12 kva=50.0 EmergHKVA=75.0 %r=0.532544 XHL=2.4 XLT=2.4 XHT=1.6

New Transformer.tr(r:p10udt3730-p10udt3730lv) phases=1 windings=3 %loadloss=0.798816 %Noloadloss=0.472 normhkva=27.5 wdg=1 conn=delta bus=p10udt3730.2.3 Kv=12.47 kva=25.0 EmergHKVA=37.5 %r=0.266272 wdg=2 conn=wye bus=p10udt3730lv.1.0 Kv=0.12 kva=25.0 EmergHKVA=37.5 %r=0.532544 wdg=3 conn=wye bus=p10udt3730lv.0.2 Kv=0.12 kva=25.0 EmergHKVA=37.5 %r=0.532544 XHL=2.4 XLT=2.4 XHT=1.6

New Transformer.tr(r:p10udt3731-p10udt3731lv) phases=1 windings=3 %loadloss=0.798816 %Noloadloss=0.37 normhkva=55.0 wdg=1 conn=delta bus=p10udt3731.2.3 Kv=12.47 kva=50.0 EmergHKVA=75.0 %r=0.266272 wdg=2 conn=wye bus=p10udt3731lv.1.0 Kv=0.12 kva=50.0 EmergHKVA=75.0 %r=0.532544 wdg=3 conn=wye bus=p10udt3731lv.0.2 Kv=0.12 kva=50.0 EmergHKVA=75.0 %r=0.532544 XHL=2.4 XLT=2.4 XHT=1.6

New Transformer.tr(r:p10udt3733-p10udt3733lv) phases=1 windings=3 %loadloss=0.798816 %Noloadloss=0.472 normhkva=27.5 wdg=1 conn=delta bus=p10udt3733.1.3 Kv=12.47 kva=25.0 EmergHKVA=37.5 %r=0.266272 wdg=2 conn=wye bus=p10udt3733lv.1.0 Kv=0.12 kva=25.0 EmergHKVA=37.5 %r=0.532544 wdg=3 conn=wye bus=p10udt3733lv.0.2 Kv=0.12 kva=25.0 EmergHKVA=37.5 %r=0.532544 XHL=2.4 XLT=2.4 XHT=1.6

New Transformer.tr(r:p10udt3735-p10udt3735lv) phases=1 windings=3 %loadloss=0.798816 %Noloadloss=0.472 normhkva=27.5 wdg=1 conn=delta bus=p10udt3735.1.2 Kv=12.47 kva=25.0 EmergHKVA=37.5 %r=0.266272 wdg=2 conn=wye bus=p10udt3735lv.1.0 Kv=0.12 kva=25.0 EmergHKVA=37.5 %r=0.532544 wdg=3 conn=wye bus=p10udt3735lv.0.2 Kv=0.12 kva=25.0 EmergHKVA=37.5 %r=0.532544 XHL=2.4 XLT=2.4 XHT=1.6

New Transformer.tr(r:p10udt3736-p10udt3736lv) phases=1 windings=3 %loadloss=0.798816 %Noloadloss=0.472 normhkva=27.5 wdg=1 conn=delta bus=p10udt3736.1.2 Kv=12.47 kva=25.0 EmergHKVA=37.5 %r=0.266272 wdg=2 conn=wye bus=p10udt3736lv.1.0 Kv=0.12 kva=25.0 EmergHKVA=37.5 %r=0.532544 wdg=3 conn=wye bus=p10udt3736lv.0.2 Kv=0.12 kva=25.0 EmergHKVA=37.5 %r=0.532544 XHL=2.4 XLT=2.4 XHT=1.6

New Transformer.tr(r:p10udt3737-p10udt3737lv) phases=1 windings=3 %loadloss=0.798816 %Noloadloss=0.472 normhkva=27.5 wdg=1 conn=delta bus=p10udt3737.2.3 Kv=12.47 kva=25.0 EmergHKVA=37.5 %r=0.266272 wdg=2 conn=wye bus=p10udt3737lv.1.0 Kv=0.12 kva=25.0 EmergHKVA=37.5 %r=0.532544 wdg=3 conn=wye bus=p10udt3737lv.0.2 Kv=0.12 kva=25.0 EmergHKVA=37.5 %r=0.532544 XHL=2.4 XLT=2.4 XHT=1.6

New Transformer.tr(r:p10udt3740-p10udt3740lv) phases=1 windings=3 %loadloss=0.798816 %Noloadloss=0.37 normhkva=55.0 wdg=1 conn=delta bus=p10udt3740.1.3 Kv=12.47 kva=50.0 EmergHKVA=75.0 %r=0.266272 wdg=2 conn=wye bus=p10udt3740lv.1.0 Kv=0.12 kva=50.0 EmergHKVA=75.0 %r=0.532544 wdg=3 conn=wye bus=p10udt3740lv.0.2 Kv=0.12 kva=50.0 EmergHKVA=75.0 %r=0.532544 XHL=2.4 XLT=2.4 XHT=1.6

New Transformer.tr(r:p10udt3741-p10udt3741lv) phases=1 windings=3 %loadloss=0.798816 %Noloadloss=0.472 normhkva=27.5 wdg=1 conn=delta bus=p10udt3741.2.3 Kv=12.47 kva=25.0 EmergHKVA=37.5 %r=0.266272 wdg=2 conn=wye bus=p10udt3741lv.1.0 Kv=0.12 kva=25.0 EmergHKVA=37.5 %r=0.532544 wdg=3 conn=wye bus=p10udt3741lv.0.2 Kv=0.12 kva=25.0 EmergHKVA=37.5 %r=0.532544 XHL=2.4 XLT=2.4 XHT=1.6

New Transformer.tr(r:p10udt3742-p10udt3742lv) phases=1 windings=3 %loadloss=0.798816 %Noloadloss=0.472 normhkva=27.5 wdg=1 conn=delta bus=p10udt3742.1.2 Kv=12.47 kva=25.0 EmergHKVA=37.5 %r=0.266272 wdg=2 conn=wye bus=p10udt3742lv.1.0 Kv=0.12 kva=25.0 EmergHKVA=37.5 %r=0.532544 wdg=3 conn=wye bus=p10udt3742lv.0.2 Kv=0.12 kva=25.0 EmergHKVA=37.5 %r=0.532544 XHL=2.4 XLT=2.4 XHT=1.6

New Transformer.tr(r:p10udt3743-p10udt3743lv) phases=3 windings=2 %loadloss=1.74408 %Noloadloss=0.6 normhkva=82.5 wdg=1 conn=delta Kv=12.47 kva=75.0 EmergHKVA=112.5 %R=0.87204 bus=p10udt3743 wdg=2 conn=delta Kv=0.48 kva=75.0 EmergHKVA=112.5 %R=0.87204 bus=p10udt3743lv XHL=3.2400000000000007

New Transformer.tr(r:p10udt3745-p10udt3745lv) phases=1 windings=3 %loadloss=0.798816 %Noloadloss=0.37 normhkva=55.0 wdg=1 conn=delta bus=p10udt3745.2.3 Kv=12.47 kva=50.0 EmergHKVA=75.0 %r=0.266272 wdg=2 conn=wye bus=p10udt3745lv.1.0 Kv=0.12 kva=50.0 EmergHKVA=75.0 %r=0.532544 wdg=3 conn=wye bus=p10udt3745lv.0.2 Kv=0.12 kva=50.0 EmergHKVA=75.0 %r=0.532544 XHL=2.4 XLT=2.4 XHT=1.6

New Transformer.tr(r:p10udt3746-p10udt3746lv) phases=1 windings=3 %loadloss=0.798816 %Noloadloss=0.37 normhkva=55.0 wdg=1 conn=delta bus=p10udt3746.1.2 Kv=12.47 kva=50.0 EmergHKVA=75.0 %r=0.266272 wdg=2 conn=wye bus=p10udt3746lv.1.0 Kv=0.12 kva=50.0 EmergHKVA=75.0 %r=0.532544 wdg=3 conn=wye bus=p10udt3746lv.0.2 Kv=0.12 kva=50.0 EmergHKVA=75.0 %r=0.532544 XHL=2.4 XLT=2.4 XHT=1.6

New Transformer.tr(r:p10udt3748-p10udt3748lv) phases=1 windings=3 %loadloss=0.798816 %Noloadloss=0.37 normhkva=55.0 wdg=1 conn=delta bus=p10udt3748.1.3 Kv=12.47 kva=50.0 EmergHKVA=75.0 %r=0.266272 wdg=2 conn=wye bus=p10udt3748lv.1.0 Kv=0.12 kva=50.0 EmergHKVA=75.0 %r=0.532544 wdg=3 conn=wye bus=p10udt3748lv.0.2 Kv=0.12 kva=50.0 EmergHKVA=75.0 %r=0.532544 XHL=2.4 XLT=2.4 XHT=1.6

New Transformer.tr(r:p10udt3752-p10udt3752lv) phases=1 windings=3 %loadloss=0.798816 %Noloadloss=0.37 normhkva=55.0 wdg=1 conn=delta bus=p10udt3752.2.3 Kv=12.47 kva=50.0 EmergHKVA=75.0 %r=0.266272 wdg=2 conn=wye bus=p10udt3752lv.1.0 Kv=0.12 kva=50.0 EmergHKVA=75.0 %r=0.532544 wdg=3 conn=wye bus=p10udt3752lv.0.2 Kv=0.12 kva=50.0 EmergHKVA=75.0 %r=0.532544 XHL=2.4 XLT=2.4 XHT=1.6

New Transformer.tr(r:p10udt3754-p10udt3754lv) phases=1 windings=3 %loadloss=0.798816 %Noloadloss=0.472 normhkva=27.5 wdg=1 conn=delta bus=p10udt3754.2.3 Kv=12.47 kva=25.0 EmergHKVA=37.5 %r=0.266272 wdg=2 conn=wye bus=p10udt3754lv.1.0 Kv=0.12 kva=25.0 EmergHKVA=37.5 %r=0.532544 wdg=3 conn=wye bus=p10udt3754lv.0.2 Kv=0.12 kva=25.0 EmergHKVA=37.5 %r=0.532544 XHL=2.4 XLT=2.4 XHT=1.6

New Transformer.tr(r:p10udt3756-p10udt3756lv) phases=3 windings=2 %loadloss=1.74408 %Noloadloss=0.6 normhkva=82.5 wdg=1 conn=delta Kv=12.47 kva=75.0 EmergHKVA=112.5 %R=0.87204 bus=p10udt3756 wdg=2 conn=delta Kv=0.48 kva=75.0 EmergHKVA=112.5 %R=0.87204 bus=p10udt3756lv XHL=3.2400000000000007

New Transformer.tr(r:p10udt3760-p10udt3760lv) phases=3 windings=2 %loadloss=1.74408 %Noloadloss=0.6 normhkva=82.5 wdg=1 conn=delta Kv=12.47 kva=75.0 EmergHKVA=112.5 %R=0.87204 bus=p10udt3760 wdg=2 conn=delta Kv=0.48 kva=75.0 EmergHKVA=112.5 %R=0.87204 bus=p10udt3760lv XHL=3.2400000000000007

New Transformer.tr(r:p10udt3762-p10udt3762lv) phases=1 windings=3 %loadloss=0.798816 %Noloadloss=0.472 normhkva=27.5 wdg=1 conn=delta bus=p10udt3762.2.3 Kv=12.47 kva=25.0 EmergHKVA=37.5 %r=0.266272 wdg=2 conn=wye bus=p10udt3762lv.1.0 Kv=0.12 kva=25.0 EmergHKVA=37.5 %r=0.532544 wdg=3 conn=wye bus=p10udt3762lv.0.2 Kv=0.12 kva=25.0 EmergHKVA=37.5 %r=0.532544 XHL=2.4 XLT=2.4 XHT=1.6

New Transformer.tr(r:p10udt3764-p10udt3764lv) phases=1 windings=3 %loadloss=0.798816 %Noloadloss=0.472 normhkva=27.5 wdg=1 conn=delta bus=p10udt3764.2.3 Kv=12.47 kva=25.0 EmergHKVA=37.5 %r=0.266272 wdg=2 conn=wye bus=p10udt3764lv.1.0 Kv=0.12 kva=25.0 EmergHKVA=37.5 %r=0.532544 wdg=3 conn=wye bus=p10udt3764lv.0.2 Kv=0.12 kva=25.0 EmergHKVA=37.5 %r=0.532544 XHL=2.4 XLT=2.4 XHT=1.6

New Transformer.tr(r:p10udt3765-p10udt3765lv) phases=1 windings=3 %loadloss=0.798816 %Noloadloss=0.472 normhkva=27.5 wdg=1 conn=delta bus=p10udt3765.1.2 Kv=12.47 kva=25.0 EmergHKVA=37.5 %r=0.266272 wdg=2 conn=wye bus=p10udt3765lv.1.0 Kv=0.12 kva=25.0 EmergHKVA=37.5 %r=0.532544 wdg=3 conn=wye bus=p10udt3765lv.0.2 Kv=0.12 kva=25.0 EmergHKVA=37.5 %r=0.532544 XHL=2.4 XLT=2.4 XHT=1.6

New Transformer.tr(r:p10udt3769-p10udt3769lv) phases=1 windings=3 %loadloss=0.798816 %Noloadloss=0.472 normhkva=27.5 wdg=1 conn=delta bus=p10udt3769.1.3 Kv=12.47 kva=25.0 EmergHKVA=37.5 %r=0.266272 wdg=2 conn=wye bus=p10udt3769lv.1.0 Kv=0.12 kva=25.0 EmergHKVA=37.5 %r=0.532544 wdg=3 conn=wye bus=p10udt3769lv.0.2 Kv=0.12 kva=25.0 EmergHKVA=37.5 %r=0.532544 XHL=2.4 XLT=2.4 XHT=1.6

New Transformer.tr(r:p10udt3771-p10udt3771lv) phases=1 windings=3 %loadloss=0.798816 %Noloadloss=0.37 normhkva=55.0 wdg=1 conn=delta bus=p10udt3771.1.2 Kv=12.47 kva=50.0 EmergHKVA=75.0 %r=0.266272 wdg=2 conn=wye bus=p10udt3771lv.1.0 Kv=0.12 kva=50.0 EmergHKVA=75.0 %r=0.532544 wdg=3 conn=wye bus=p10udt3771lv.0.2 Kv=0.12 kva=50.0 EmergHKVA=75.0 %r=0.532544 XHL=2.4 XLT=2.4 XHT=1.6

New Transformer.tr(r:p10udt3772-p10udt3772lv) phases=3 windings=2 %loadloss=1.74408 %Noloadloss=0.6 normhkva=82.5 wdg=1 conn=delta Kv=12.47 kva=75.0 EmergHKVA=112.5 %R=0.87204 bus=p10udt3772 wdg=2 conn=delta Kv=0.48 kva=75.0 EmergHKVA=112.5 %R=0.87204 bus=p10udt3772lv XHL=3.2400000000000007

New Transformer.tr(r:p10udt3773-p10udt3773lv) phases=1 windings=3 %loadloss=0.798816 %Noloadloss=0.472 normhkva=27.5 wdg=1 conn=delta bus=p10udt3773.1.2 Kv=12.47 kva=25.0 EmergHKVA=37.5 %r=0.266272 wdg=2 conn=wye bus=p10udt3773lv.1.0 Kv=0.12 kva=25.0 EmergHKVA=37.5 %r=0.532544 wdg=3 conn=wye bus=p10udt3773lv.0.2 Kv=0.12 kva=25.0 EmergHKVA=37.5 %r=0.532544 XHL=2.4 XLT=2.4 XHT=1.6

New Transformer.tr(r:p10udt3775-p10udt3775lv) phases=1 windings=3 %loadloss=0.49926 %Noloadloss=0.38 normhkva=82.5 wdg=1 conn=delta bus=p10udt3775.1.3 Kv=12.47 kva=75.0 EmergHKVA=112.5 %r=0.16642 wdg=2 conn=wye bus=p10udt3775lv.1.0 Kv=0.12 kva=75.0 EmergHKVA=112.5 %r=0.33284 wdg=3 conn=wye bus=p10udt3775lv.0.2 Kv=0.12 kva=75.0 EmergHKVA=112.5 %r=0.33284 XHL=2.4 XLT=2.4 XHT=1.6

New Transformer.tr(r:p10udt3776-p10udt3776lv) phases=1 windings=3 %loadloss=0.798816 %Noloadloss=0.472 normhkva=27.5 wdg=1 conn=delta bus=p10udt3776.1.2 Kv=12.47 kva=25.0 EmergHKVA=37.5 %r=0.266272 wdg=2 conn=wye bus=p10udt3776lv.1.0 Kv=0.12 kva=25.0 EmergHKVA=37.5 %r=0.532544 wdg=3 conn=wye bus=p10udt3776lv.0.2 Kv=0.12 kva=25.0 EmergHKVA=37.5 %r=0.532544 XHL=2.4 XLT=2.4 XHT=1.6

New Transformer.tr(r:p10udt3777-p10udt3777lv) phases=1 windings=3 %loadloss=0.798816 %Noloadloss=0.472 normhkva=27.5 wdg=1 conn=delta bus=p10udt3777.1.2 Kv=12.47 kva=25.0 EmergHKVA=37.5 %r=0.266272 wdg=2 conn=wye bus=p10udt3777lv.1.0 Kv=0.12 kva=25.0 EmergHKVA=37.5 %r=0.532544 wdg=3 conn=wye bus=p10udt3777lv.0.2 Kv=0.12 kva=25.0 EmergHKVA=37.5 %r=0.532544 XHL=2.4 XLT=2.4 XHT=1.6

New Transformer.tr(r:p10udt3780-p10udt3780lv) phases=1 windings=3 %loadloss=0.798816 %Noloadloss=0.472 normhkva=27.5 wdg=1 conn=delta bus=p10udt3780.2.3 Kv=12.47 kva=25.0 EmergHKVA=37.5 %r=0.266272 wdg=2 conn=wye bus=p10udt3780lv.1.0 Kv=0.12 kva=25.0 EmergHKVA=37.5 %r=0.532544 wdg=3 conn=wye bus=p10udt3780lv.0.2 Kv=0.12 kva=25.0 EmergHKVA=37.5 %r=0.532544 XHL=2.4 XLT=2.4 XHT=1.6

New Transformer.tr(r:p10udt3785-p10udt3785lv) phases=1 windings=3 %loadloss=0.798816 %Noloadloss=0.472 normhkva=27.5 wdg=1 conn=delta bus=p10udt3785.1.3 Kv=12.47 kva=25.0 EmergHKVA=37.5 %r=0.266272 wdg=2 conn=wye bus=p10udt3785lv.1.0 Kv=0.12 kva=25.0 EmergHKVA=37.5 %r=0.532544 wdg=3 conn=wye bus=p10udt3785lv.0.2 Kv=0.12 kva=25.0 EmergHKVA=37.5 %r=0.532544 XHL=2.4 XLT=2.4 XHT=1.6

New Transformer.tr(r:p10udt3786-p10udt3786lv) phases=1 windings=3 %loadloss=0.798816 %Noloadloss=0.472 normhkva=27.5 wdg=1 conn=delta bus=p10udt3786.1.3 Kv=12.47 kva=25.0 EmergHKVA=37.5 %r=0.266272 wdg=2 conn=wye bus=p10udt3786lv.1.0 Kv=0.12 kva=25.0 EmergHKVA=37.5 %r=0.532544 wdg=3 conn=wye bus=p10udt3786lv.0.2 Kv=0.12 kva=25.0 EmergHKVA=37.5 %r=0.532544 XHL=2.4 XLT=2.4 XHT=1.6

New Transformer.tr(r:p10udt3788-p10udt3788lv) phases=1 windings=3 %loadloss=0.798816 %Noloadloss=0.472 normhkva=27.5 wdg=1 conn=delta bus=p10udt3788.1.3 Kv=12.47 kva=25.0 EmergHKVA=37.5 %r=0.266272 wdg=2 conn=wye bus=p10udt3788lv.1.0 Kv=0.12 kva=25.0 EmergHKVA=37.5 %r=0.532544 wdg=3 conn=wye bus=p10udt3788lv.0.2 Kv=0.12 kva=25.0 EmergHKVA=37.5 %r=0.532544 XHL=2.4 XLT=2.4 XHT=1.6

New Transformer.tr(r:p10udt3793-p10udt3793lv) phases=1 windings=3 %loadloss=0.798816 %Noloadloss=0.472 normhkva=27.5 wdg=1 conn=delta bus=p10udt3793.1.2 Kv=12.47 kva=25.0 EmergHKVA=37.5 %r=0.266272 wdg=2 conn=wye bus=p10udt3793lv.1.0 Kv=0.12 kva=25.0 EmergHKVA=37.5 %r=0.532544 wdg=3 conn=wye bus=p10udt3793lv.0.2 Kv=0.12 kva=25.0 EmergHKVA=37.5 %r=0.532544 XHL=2.4 XLT=2.4 XHT=1.6

New Transformer.tr(r:p10udt3794-p10udt3794lv) phases=1 windings=3 %loadloss=0.798816 %Noloadloss=0.472 normhkva=27.5 wdg=1 conn=delta bus=p10udt3794.1.2 Kv=12.47 kva=25.0 EmergHKVA=37.5 %r=0.266272 wdg=2 conn=wye bus=p10udt3794lv.1.0 Kv=0.12 kva=25.0 EmergHKVA=37.5 %r=0.532544 wdg=3 conn=wye bus=p10udt3794lv.0.2 Kv=0.12 kva=25.0 EmergHKVA=37.5 %r=0.532544 XHL=2.4 XLT=2.4 XHT=1.6

New Transformer.tr(r:p10udt3798-p10udt3798lv) phases=1 windings=3 %loadloss=0.798816 %Noloadloss=0.37 normhkva=55.0 wdg=1 conn=delta bus=p10udt3798.1.3 Kv=12.47 kva=50.0 EmergHKVA=75.0 %r=0.266272 wdg=2 conn=wye bus=p10udt3798lv.1.0 Kv=0.12 kva=50.0 EmergHKVA=75.0 %r=0.532544 wdg=3 conn=wye bus=p10udt3798lv.0.2 Kv=0.12 kva=50.0 EmergHKVA=75.0 %r=0.532544 XHL=2.4 XLT=2.4 XHT=1.6

New Transformer.tr(r:p10udt3799-p10udt3799lv) phases=1 windings=3 %loadloss=0.798816 %Noloadloss=0.37 normhkva=55.0 wdg=1 conn=delta bus=p10udt3799.2.3 Kv=12.47 kva=50.0 EmergHKVA=75.0 %r=0.266272 wdg=2 conn=wye bus=p10udt3799lv.1.0 Kv=0.12 kva=50.0 EmergHKVA=75.0 %r=0.532544 wdg=3 conn=wye bus=p10udt3799lv.0.2 Kv=0.12 kva=50.0 EmergHKVA=75.0 %r=0.532544 XHL=2.4 XLT=2.4 XHT=1.6

New Transformer.tr(r:p10udt3801-p10udt3801lv) phases=1 windings=3 %loadloss=0.798816 %Noloadloss=0.472 normhkva=27.5 wdg=1 conn=delta bus=p10udt3801.1.2 Kv=12.47 kva=25.0 EmergHKVA=37.5 %r=0.266272 wdg=2 conn=wye bus=p10udt3801lv.1.0 Kv=0.12 kva=25.0 EmergHKVA=37.5 %r=0.532544 wdg=3 conn=wye bus=p10udt3801lv.0.2 Kv=0.12 kva=25.0 EmergHKVA=37.5 %r=0.532544 XHL=2.4 XLT=2.4 XHT=1.6

New Transformer.tr(r:p10udt3803-p10udt3803lv) phases=3 windings=2 %loadloss=1.74408 %Noloadloss=0.6 normhkva=82.5 wdg=1 conn=delta Kv=12.47 kva=75.0 EmergHKVA=112.5 %R=0.87204 bus=p10udt3803 wdg=2 conn=delta Kv=0.48 kva=75.0 EmergHKVA=112.5 %R=0.87204 bus=p10udt3803lv XHL=3.2400000000000007

New Transformer.tr(r:p10udt3804-p10udt3804lv) phases=3 windings=2 %loadloss=1.74408 %Noloadloss=0.6 normhkva=82.5 wdg=1 conn=delta Kv=12.47 kva=75.0 EmergHKVA=112.5 %R=0.87204 bus=p10udt3804 wdg=2 conn=delta Kv=0.48 kva=75.0 EmergHKVA=112.5 %R=0.87204 bus=p10udt3804lv XHL=3.2400000000000007

New Transformer.tr(r:p10udt3809-p10udt3809lv) phases=3 windings=2 %loadloss=1.74408 %Noloadloss=0.6 normhkva=82.5 wdg=1 conn=delta Kv=12.47 kva=75.0 EmergHKVA=112.5 %R=0.87204 bus=p10udt3809 wdg=2 conn=delta Kv=0.48 kva=75.0 EmergHKVA=112.5 %R=0.87204 bus=p10udt3809lv XHL=3.2400000000000007

New Transformer.tr(r:p10udt3810-p10udt3810lv) phases=1 windings=3 %loadloss=0.798816 %Noloadloss=0.37 normhkva=55.0 wdg=1 conn=delta bus=p10udt3810.1.2 Kv=12.47 kva=50.0 EmergHKVA=75.0 %r=0.266272 wdg=2 conn=wye bus=p10udt3810lv.1.0 Kv=0.12 kva=50.0 EmergHKVA=75.0 %r=0.532544 wdg=3 conn=wye bus=p10udt3810lv.0.2 Kv=0.12 kva=50.0 EmergHKVA=75.0 %r=0.532544 XHL=2.4 XLT=2.4 XHT=1.6

New Transformer.tr(r:p10udt3812-p10udt3812lv) phases=1 windings=3 %loadloss=0.798816 %Noloadloss=0.472 normhkva=27.5 wdg=1 conn=delta bus=p10udt3812.1.3 Kv=12.47 kva=25.0 EmergHKVA=37.5 %r=0.266272 wdg=2 conn=wye bus=p10udt3812lv.1.0 Kv=0.12 kva=25.0 EmergHKVA=37.5 %r=0.532544 wdg=3 conn=wye bus=p10udt3812lv.0.2 Kv=0.12 kva=25.0 EmergHKVA=37.5 %r=0.532544 XHL=2.4 XLT=2.4 XHT=1.6

New Transformer.tr(r:p10udt3813-p10udt3813lv) phases=3 windings=2 %loadloss=1.74408 %Noloadloss=0.6 normhkva=82.5 wdg=1 conn=delta Kv=12.47 kva=75.0 EmergHKVA=112.5 %R=0.87204 bus=p10udt3813 wdg=2 conn=delta Kv=0.48 kva=75.0 EmergHKVA=112.5 %R=0.87204 bus=p10udt3813lv XHL=3.2400000000000007

New Transformer.tr(r:p10udt3816-p10udt3816lv) phases=1 windings=3 %loadloss=0.798816 %Noloadloss=0.472 normhkva=27.5 wdg=1 conn=delta bus=p10udt3816.2.3 Kv=12.47 kva=25.0 EmergHKVA=37.5 %r=0.266272 wdg=2 conn=wye bus=p10udt3816lv.1.0 Kv=0.12 kva=25.0 EmergHKVA=37.5 %r=0.532544 wdg=3 conn=wye bus=p10udt3816lv.0.2 Kv=0.12 kva=25.0 EmergHKVA=37.5 %r=0.532544 XHL=2.4 XLT=2.4 XHT=1.6

New Transformer.tr(r:p10udt3823-p10udt3823lv) phases=1 windings=3 %loadloss=0.798816 %Noloadloss=0.472 normhkva=27.5 wdg=1 conn=delta bus=p10udt3823.1.3 Kv=12.47 kva=25.0 EmergHKVA=37.5 %r=0.266272 wdg=2 conn=wye bus=p10udt3823lv.1.0 Kv=0.12 kva=25.0 EmergHKVA=37.5 %r=0.532544 wdg=3 conn=wye bus=p10udt3823lv.0.2 Kv=0.12 kva=25.0 EmergHKVA=37.5 %r=0.532544 XHL=2.4 XLT=2.4 XHT=1.6

New Transformer.tr(r:p10udt3824-p10udt3824lv) phases=1 windings=3 %loadloss=0.798816 %Noloadloss=0.472 normhkva=27.5 wdg=1 conn=delta bus=p10udt3824.1.3 Kv=12.47 kva=25.0 EmergHKVA=37.5 %r=0.266272 wdg=2 conn=wye bus=p10udt3824lv.1.0 Kv=0.12 kva=25.0 EmergHKVA=37.5 %r=0.532544 wdg=3 conn=wye bus=p10udt3824lv.0.2 Kv=0.12 kva=25.0 EmergHKVA=37.5 %r=0.532544 XHL=2.4 XLT=2.4 XHT=1.6

New Transformer.tr(r:p10udt3825-p10udt3825lv) phases=1 windings=3 %loadloss=0.798816 %Noloadloss=0.37 normhkva=55.0 wdg=1 conn=delta bus=p10udt3825.1.2 Kv=12.47 kva=50.0 EmergHKVA=75.0 %r=0.266272 wdg=2 conn=wye bus=p10udt3825lv.1.0 Kv=0.12 kva=50.0 EmergHKVA=75.0 %r=0.532544 wdg=3 conn=wye bus=p10udt3825lv.0.2 Kv=0.12 kva=50.0 EmergHKVA=75.0 %r=0.532544 XHL=2.4 XLT=2.4 XHT=1.6

New Transformer.tr(r:p10udt3826-p10udt3826lv) phases=1 windings=3 %loadloss=0.798816 %Noloadloss=0.37 normhkva=55.0 wdg=1 conn=delta bus=p10udt3826.1.3 Kv=12.47 kva=50.0 EmergHKVA=75.0 %r=0.266272 wdg=2 conn=wye bus=p10udt3826lv.1.0 Kv=0.12 kva=50.0 EmergHKVA=75.0 %r=0.532544 wdg=3 conn=wye bus=p10udt3826lv.0.2 Kv=0.12 kva=50.0 EmergHKVA=75.0 %r=0.532544 XHL=2.4 XLT=2.4 XHT=1.6

New Transformer.tr(r:p10udt3827-p10udt3827lv) phases=1 windings=3 %loadloss=0.798816 %Noloadloss=0.37 normhkva=55.0 wdg=1 conn=delta bus=p10udt3827.2.3 Kv=12.47 kva=50.0 EmergHKVA=75.0 %r=0.266272 wdg=2 conn=wye bus=p10udt3827lv.1.0 Kv=0.12 kva=50.0 EmergHKVA=75.0 %r=0.532544 wdg=3 conn=wye bus=p10udt3827lv.0.2 Kv=0.12 kva=50.0 EmergHKVA=75.0 %r=0.532544 XHL=2.4 XLT=2.4 XHT=1.6

New Transformer.tr(r:p10udt3828-p10udt3828lv) phases=1 windings=3 %loadloss=0.798816 %Noloadloss=0.37 normhkva=55.0 wdg=1 conn=delta bus=p10udt3828.1.3 Kv=12.47 kva=50.0 EmergHKVA=75.0 %r=0.266272 wdg=2 conn=wye bus=p10udt3828lv.1.0 Kv=0.12 kva=50.0 EmergHKVA=75.0 %r=0.532544 wdg=3 conn=wye bus=p10udt3828lv.0.2 Kv=0.12 kva=50.0 EmergHKVA=75.0 %r=0.532544 XHL=2.4 XLT=2.4 XHT=1.6

New Transformer.tr(r:p10udt3829-p10udt3829lv) phases=1 windings=3 %loadloss=0.798816 %Noloadloss=0.37 normhkva=55.0 wdg=1 conn=delta bus=p10udt3829.1.3 Kv=12.47 kva=50.0 EmergHKVA=75.0 %r=0.266272 wdg=2 conn=wye bus=p10udt3829lv.1.0 Kv=0.12 kva=50.0 EmergHKVA=75.0 %r=0.532544 wdg=3 conn=wye bus=p10udt3829lv.0.2 Kv=0.12 kva=50.0 EmergHKVA=75.0 %r=0.532544 XHL=2.4 XLT=2.4 XHT=1.6

New Transformer.tr(r:p10udt3830-p10udt3830lv) phases=1 windings=3 %loadloss=0.798816 %Noloadloss=0.472 normhkva=27.5 wdg=1 conn=delta bus=p10udt3830.1.2 Kv=12.47 kva=25.0 EmergHKVA=37.5 %r=0.266272 wdg=2 conn=wye bus=p10udt3830lv.1.0 Kv=0.12 kva=25.0 EmergHKVA=37.5 %r=0.532544 wdg=3 conn=wye bus=p10udt3830lv.0.2 Kv=0.12 kva=25.0 EmergHKVA=37.5 %r=0.532544 XHL=2.4 XLT=2.4 XHT=1.6

New Transformer.tr(r:p10udt3831-p10udt3831lv) phases=1 windings=3 %loadloss=0.798816 %Noloadloss=0.472 normhkva=27.5 wdg=1 conn=delta bus=p10udt3831.2.3 Kv=12.47 kva=25.0 EmergHKVA=37.5 %r=0.266272 wdg=2 conn=wye bus=p10udt3831lv.1.0 Kv=0.12 kva=25.0 EmergHKVA=37.5 %r=0.532544 wdg=3 conn=wye bus=p10udt3831lv.0.2 Kv=0.12 kva=25.0 EmergHKVA=37.5 %r=0.532544 XHL=2.4 XLT=2.4 XHT=1.6

New Transformer.tr(r:p10udt3832-p10udt3832lv) phases=1 windings=3 %loadloss=0.798816 %Noloadloss=0.472 normhkva=27.5 wdg=1 conn=delta bus=p10udt3832.1.3 Kv=12.47 kva=25.0 EmergHKVA=37.5 %r=0.266272 wdg=2 conn=wye bus=p10udt3832lv.1.0 Kv=0.12 kva=25.0 EmergHKVA=37.5 %r=0.532544 wdg=3 conn=wye bus=p10udt3832lv.0.2 Kv=0.12 kva=25.0 EmergHKVA=37.5 %r=0.532544 XHL=2.4 XLT=2.4 XHT=1.6

New Transformer.tr(r:p10udt3833-p10udt3833lv) phases=1 windings=3 %loadloss=0.798816 %Noloadloss=0.472 normhkva=27.5 wdg=1 conn=delta bus=p10udt3833.1.2 Kv=12.47 kva=25.0 EmergHKVA=37.5 %r=0.266272 wdg=2 conn=wye bus=p10udt3833lv.1.0 Kv=0.12 kva=25.0 EmergHKVA=37.5 %r=0.532544 wdg=3 conn=wye bus=p10udt3833lv.0.2 Kv=0.12 kva=25.0 EmergHKVA=37.5 %r=0.532544 XHL=2.4 XLT=2.4 XHT=1.6

New Transformer.tr(r:p10udt3834-p10udt3834lv) phases=1 windings=3 %loadloss=0.798816 %Noloadloss=0.37 normhkva=55.0 wdg=1 conn=delta bus=p10udt3834.1.3 Kv=12.47 kva=50.0 EmergHKVA=75.0 %r=0.266272 wdg=2 conn=wye bus=p10udt3834lv.1.0 Kv=0.12 kva=50.0 EmergHKVA=75.0 %r=0.532544 wdg=3 conn=wye bus=p10udt3834lv.0.2 Kv=0.12 kva=50.0 EmergHKVA=75.0 %r=0.532544 XHL=2.4 XLT=2.4 XHT=1.6

New Transformer.tr(r:p10udt3835-p10udt3835lv) phases=1 windings=3 %loadloss=0.49926 %Noloadloss=0.38 normhkva=82.5 wdg=1 conn=delta bus=p10udt3835.1.3 Kv=12.47 kva=75.0 EmergHKVA=112.5 %r=0.16642 wdg=2 conn=wye bus=p10udt3835lv.1.0 Kv=0.12 kva=75.0 EmergHKVA=112.5 %r=0.33284 wdg=3 conn=wye bus=p10udt3835lv.0.2 Kv=0.12 kva=75.0 EmergHKVA=112.5 %r=0.33284 XHL=2.4 XLT=2.4 XHT=1.6

New Transformer.tr(r:p10udt3836-p10udt3836lv) phases=1 windings=3 %loadloss=0.798816 %Noloadloss=0.472 normhkva=27.5 wdg=1 conn=delta bus=p10udt3836.1.3 Kv=12.47 kva=25.0 EmergHKVA=37.5 %r=0.266272 wdg=2 conn=wye bus=p10udt3836lv.1.0 Kv=0.12 kva=25.0 EmergHKVA=37.5 %r=0.532544 wdg=3 conn=wye bus=p10udt3836lv.0.2 Kv=0.12 kva=25.0 EmergHKVA=37.5 %r=0.532544 XHL=2.4 XLT=2.4 XHT=1.6

New Transformer.tr(r:p10udt3837-p10udt3837lv) phases=1 windings=3 %loadloss=0.798816 %Noloadloss=0.472 normhkva=27.5 wdg=1 conn=delta bus=p10udt3837.1.3 Kv=12.47 kva=25.0 EmergHKVA=37.5 %r=0.266272 wdg=2 conn=wye bus=p10udt3837lv.1.0 Kv=0.12 kva=25.0 EmergHKVA=37.5 %r=0.532544 wdg=3 conn=wye bus=p10udt3837lv.0.2 Kv=0.12 kva=25.0 EmergHKVA=37.5 %r=0.532544 XHL=2.4 XLT=2.4 XHT=1.6

New Transformer.tr(r:p10udt3838-p10udt3838lv) phases=1 windings=3 %loadloss=0.798816 %Noloadloss=0.472 normhkva=27.5 wdg=1 conn=delta bus=p10udt3838.1.3 Kv=12.47 kva=25.0 EmergHKVA=37.5 %r=0.266272 wdg=2 conn=wye bus=p10udt3838lv.1.0 Kv=0.12 kva=25.0 EmergHKVA=37.5 %r=0.532544 wdg=3 conn=wye bus=p10udt3838lv.0.2 Kv=0.12 kva=25.0 EmergHKVA=37.5 %r=0.532544 XHL=2.4 XLT=2.4 XHT=1.6

New Transformer.tr(r:p10udt3842-p10udt3842lv) phases=1 windings=3 %loadloss=0.49926 %Noloadloss=0.38 normhkva=82.5 wdg=1 conn=delta bus=p10udt3842.1.3 Kv=12.47 kva=75.0 EmergHKVA=112.5 %r=0.16642 wdg=2 conn=wye bus=p10udt3842lv.1.0 Kv=0.12 kva=75.0 EmergHKVA=112.5 %r=0.33284 wdg=3 conn=wye bus=p10udt3842lv.0.2 Kv=0.12 kva=75.0 EmergHKVA=112.5 %r=0.33284 XHL=2.4 XLT=2.4 XHT=1.6

New Transformer.tr(r:p10udt3843-p10udt3843lv) phases=1 windings=3 %loadloss=0.798816 %Noloadloss=0.472 normhkva=27.5 wdg=1 conn=delta bus=p10udt3843.2.3 Kv=12.47 kva=25.0 EmergHKVA=37.5 %r=0.266272 wdg=2 conn=wye bus=p10udt3843lv.1.0 Kv=0.12 kva=25.0 EmergHKVA=37.5 %r=0.532544 wdg=3 conn=wye bus=p10udt3843lv.0.2 Kv=0.12 kva=25.0 EmergHKVA=37.5 %r=0.532544 XHL=2.4 XLT=2.4 XHT=1.6

New Transformer.tr(r:p10udt3844-p10udt3844lv) phases=1 windings=3 %loadloss=0.798816 %Noloadloss=0.37 normhkva=55.0 wdg=1 conn=delta bus=p10udt3844.1.2 Kv=12.47 kva=50.0 EmergHKVA=75.0 %r=0.266272 wdg=2 conn=wye bus=p10udt3844lv.1.0 Kv=0.12 kva=50.0 EmergHKVA=75.0 %r=0.532544 wdg=3 conn=wye bus=p10udt3844lv.0.2 Kv=0.12 kva=50.0 EmergHKVA=75.0 %r=0.532544 XHL=2.4 XLT=2.4 XHT=1.6

New Transformer.tr(r:p10udt3845-p10udt3845lv) phases=1 windings=3 %loadloss=0.798816 %Noloadloss=0.472 normhkva=27.5 wdg=1 conn=delta bus=p10udt3845.2.3 Kv=12.47 kva=25.0 EmergHKVA=37.5 %r=0.266272 wdg=2 conn=wye bus=p10udt3845lv.1.0 Kv=0.12 kva=25.0 EmergHKVA=37.5 %r=0.532544 wdg=3 conn=wye bus=p10udt3845lv.0.2 Kv=0.12 kva=25.0 EmergHKVA=37.5 %r=0.532544 XHL=2.4 XLT=2.4 XHT=1.6

New Transformer.tr(r:p10udt3846-p10udt3846lv) phases=1 windings=3 %loadloss=0.798816 %Noloadloss=0.37 normhkva=55.0 wdg=1 conn=delta bus=p10udt3846.2.3 Kv=12.47 kva=50.0 EmergHKVA=75.0 %r=0.266272 wdg=2 conn=wye bus=p10udt3846lv.1.0 Kv=0.12 kva=50.0 EmergHKVA=75.0 %r=0.532544 wdg=3 conn=wye bus=p10udt3846lv.0.2 Kv=0.12 kva=50.0 EmergHKVA=75.0 %r=0.532544 XHL=2.4 XLT=2.4 XHT=1.6

New Transformer.tr(r:p10udt3847-p10udt3847lv) phases=1 windings=3 %loadloss=0.798816 %Noloadloss=0.472 normhkva=27.5 wdg=1 conn=delta bus=p10udt3847.2.3 Kv=12.47 kva=25.0 EmergHKVA=37.5 %r=0.266272 wdg=2 conn=wye bus=p10udt3847lv.1.0 Kv=0.12 kva=25.0 EmergHKVA=37.5 %r=0.532544 wdg=3 conn=wye bus=p10udt3847lv.0.2 Kv=0.12 kva=25.0 EmergHKVA=37.5 %r=0.532544 XHL=2.4 XLT=2.4 XHT=1.6

New Transformer.tr(r:p10udt3848-p10udt3848lv) phases=1 windings=3 %loadloss=0.798816 %Noloadloss=0.472 normhkva=27.5 wdg=1 conn=delta bus=p10udt3848.2.3 Kv=12.47 kva=25.0 EmergHKVA=37.5 %r=0.266272 wdg=2 conn=wye bus=p10udt3848lv.1.0 Kv=0.12 kva=25.0 EmergHKVA=37.5 %r=0.532544 wdg=3 conn=wye bus=p10udt3848lv.0.2 Kv=0.12 kva=25.0 EmergHKVA=37.5 %r=0.532544 XHL=2.4 XLT=2.4 XHT=1.6

New Transformer.tr(r:p10udt3849-p10udt3849lv) phases=1 windings=3 %loadloss=0.798816 %Noloadloss=0.37 normhkva=55.0 wdg=1 conn=delta bus=p10udt3849.2.3 Kv=12.47 kva=50.0 EmergHKVA=75.0 %r=0.266272 wdg=2 conn=wye bus=p10udt3849lv.1.0 Kv=0.12 kva=50.0 EmergHKVA=75.0 %r=0.532544 wdg=3 conn=wye bus=p10udt3849lv.0.2 Kv=0.12 kva=50.0 EmergHKVA=75.0 %r=0.532544 XHL=2.4 XLT=2.4 XHT=1.6

New Transformer.tr(r:p10udt3850-p10udt3850lv) phases=1 windings=3 %loadloss=0.798816 %Noloadloss=0.37 normhkva=55.0 wdg=1 conn=delta bus=p10udt3850.2.3 Kv=12.47 kva=50.0 EmergHKVA=75.0 %r=0.266272 wdg=2 conn=wye bus=p10udt3850lv.1.0 Kv=0.12 kva=50.0 EmergHKVA=75.0 %r=0.532544 wdg=3 conn=wye bus=p10udt3850lv.0.2 Kv=0.12 kva=50.0 EmergHKVA=75.0 %r=0.532544 XHL=2.4 XLT=2.4 XHT=1.6
