new Line.671692 Switch=True Bus1=671.1.2.3 Bus2=692.1.2.3 LineCode=mtx601 Length=1.0 Phases=3 Units=m
