New Load.load_p10ulv15615_1 conn=wye bus1=p10ulv15615.1 kV=0.12 Vminpu=0.8 Vmaxpu=1.2 model=1 kW=0.9950100000000001 kvar=0.19995332825032197 Phases=1

New Load.load_p10ulv15615_2 conn=wye bus1=p10ulv15615.2 kV=0.12 Vminpu=0.8 Vmaxpu=1.2 model=1 kW=0.9950100000000001 kvar=0.19995332825032197 Phases=1

New Load.load_p10ulv15617_1 conn=wye bus1=p10ulv15617.1 kV=0.12 Vminpu=0.8 Vmaxpu=1.2 model=1 kW=1.02501 kvar=0.20974069600619585 Phases=1

New Load.load_p10ulv15617_2 conn=wye bus1=p10ulv15617.2 kV=0.12 Vminpu=0.8 Vmaxpu=1.2 model=1 kW=1.02501 kvar=0.20974069600619585 Phases=1

New Load.load_p10ulv15620_1 conn=wye bus1=p10ulv15620.1 kV=0.12 Vminpu=0.8 Vmaxpu=1.2 model=1 kW=1.23501 kvar=0.2501325352825422 Phases=1

New Load.load_p10ulv15620_2 conn=wye bus1=p10ulv15620.2 kV=0.12 Vminpu=0.8 Vmaxpu=1.2 model=1 kW=1.23501 kvar=0.2501325352825422 Phases=1

New Load.load_p10ulv15626_1 conn=wye bus1=p10ulv15626.1 kV=0.12 Vminpu=0.8 Vmaxpu=1.2 model=1 kW=1.290015 kvar=0.25991680771334275 Phases=1

New Load.load_p10ulv15626_2 conn=wye bus1=p10ulv15626.2 kV=0.12 Vminpu=0.8 Vmaxpu=1.2 model=1 kW=1.290015 kvar=0.25991680771334275 Phases=1

New Load.load_p10ulv15627_1 conn=wye bus1=p10ulv15627.1 kV=0.12 Vminpu=0.8 Vmaxpu=1.2 model=1 kW=1.19001 kvar=0.23976744483355233 Phases=1

New Load.load_p10ulv15627_2 conn=wye bus1=p10ulv15627.2 kV=0.12 Vminpu=0.8 Vmaxpu=1.2 model=1 kW=1.19001 kvar=0.23976744483355233 Phases=1

New Load.load_p10ulv15628_1 conn=wye bus1=p10ulv15628.1 kV=0.12 Vminpu=0.8 Vmaxpu=1.2 model=1 kW=0.6500050000000002 kvar=0.12993437470425945 Phases=1

New Load.load_p10ulv15628_2 conn=wye bus1=p10ulv15628.2 kV=0.12 Vminpu=0.8 Vmaxpu=1.2 model=1 kW=0.6500050000000002 kvar=0.12993437470425945 Phases=1

New Load.load_p10ulv15630_1 conn=wye bus1=p10ulv15630.1 kV=0.12 Vminpu=0.8 Vmaxpu=1.2 model=1 kW=0.575005 kvar=0.1149420621792489 Phases=1

New Load.load_p10ulv15630_2 conn=wye bus1=p10ulv15630.2 kV=0.12 Vminpu=0.8 Vmaxpu=1.2 model=1 kW=0.575005 kvar=0.1149420621792489 Phases=1

New Load.load_p10ulv15632_1 conn=wye bus1=p10ulv15632.1 kV=0.12 Vminpu=0.8 Vmaxpu=1.2 model=1 kW=1.11501 kvar=0.22524294003106118 Phases=1

New Load.load_p10ulv15632_2 conn=wye bus1=p10ulv15632.2 kV=0.12 Vminpu=0.8 Vmaxpu=1.2 model=1 kW=1.11501 kvar=0.22524294003106118 Phases=1

New Load.load_p10ulv15634_1 conn=wye bus1=p10ulv15634.1 kV=0.12 Vminpu=0.8 Vmaxpu=1.2 model=1 kW=1.365015 kvar=0.27502807430985576 Phases=1

New Load.load_p10ulv15634_2 conn=wye bus1=p10ulv15634.2 kV=0.12 Vminpu=0.8 Vmaxpu=1.2 model=1 kW=1.365015 kvar=0.27502807430985576 Phases=1

New Load.load_p10ulv15636_1 conn=wye bus1=p10ulv15636.1 kV=0.12 Vminpu=0.8 Vmaxpu=1.2 model=1 kW=1.345015 kvar=0.27522110246609643 Phases=1

New Load.load_p10ulv15636_2 conn=wye bus1=p10ulv15636.2 kV=0.12 Vminpu=0.8 Vmaxpu=1.2 model=1 kW=1.345015 kvar=0.27522110246609643 Phases=1

New Load.load_p10ulv15639_1 conn=wye bus1=p10ulv15639.1 kV=0.12 Vminpu=0.8 Vmaxpu=1.2 model=1 kW=1.0500100000000003 kvar=0.21485627282998776 Phases=1

New Load.load_p10ulv15639_2 conn=wye bus1=p10ulv15639.2 kV=0.12 Vminpu=0.8 Vmaxpu=1.2 model=1 kW=1.0500100000000003 kvar=0.21485627282998776 Phases=1

New Load.load_p10ulv15640_1 conn=wye bus1=p10ulv15640.1 kV=0.12 Vminpu=0.8 Vmaxpu=1.2 model=1 kW=1.21501 kvar=0.24480453369905666 Phases=1

New Load.load_p10ulv15640_2 conn=wye bus1=p10ulv15640.2 kV=0.12 Vminpu=0.8 Vmaxpu=1.2 model=1 kW=1.21501 kvar=0.24480453369905666 Phases=1

New Load.load_p10ulv15642_1 conn=wye bus1=p10ulv15642.1 kV=0.12 Vminpu=0.8 Vmaxpu=1.2 model=1 kW=1.470015 kvar=0.3000341408589494 Phases=1

New Load.load_p10ulv15642_2 conn=wye bus1=p10ulv15642.2 kV=0.12 Vminpu=0.8 Vmaxpu=1.2 model=1 kW=1.470015 kvar=0.3000341408589494 Phases=1

New Load.load_p10ulv15644_1 conn=wye bus1=p10ulv15644.1 kV=0.12 Vminpu=0.8 Vmaxpu=1.2 model=1 kW=1.1850100000000001 kvar=0.24000579398965624 Phases=1

New Load.load_p10ulv15644_2 conn=wye bus1=p10ulv15644.2 kV=0.12 Vminpu=0.8 Vmaxpu=1.2 model=1 kW=1.1850100000000001 kvar=0.24000579398965624 Phases=1

New Load.load_p10ulv15645_1 conn=wye bus1=p10ulv15645.1 kV=0.12 Vminpu=0.8 Vmaxpu=1.2 model=1 kW=1.4000150000000002 kvar=0.28501688393859764 Phases=1

New Load.load_p10ulv15645_2 conn=wye bus1=p10ulv15645.2 kV=0.12 Vminpu=0.8 Vmaxpu=1.2 model=1 kW=1.4000150000000002 kvar=0.28501688393859764 Phases=1

New Load.load_p10ulv15646_1 conn=wye bus1=p10ulv15646.1 kV=0.12 Vminpu=0.8 Vmaxpu=1.2 model=1 kW=0.92501 kvar=0.19023773697225912 Phases=1

New Load.load_p10ulv15646_2 conn=wye bus1=p10ulv15646.2 kV=0.12 Vminpu=0.8 Vmaxpu=1.2 model=1 kW=0.92501 kvar=0.19023773697225912 Phases=1

New Load.load_p10ulv15647_1 conn=wye bus1=p10ulv15647.1 kV=0.12 Vminpu=0.8 Vmaxpu=1.2 model=1 kW=1.370015 kvar=0.28033667928988826 Phases=1

New Load.load_p10ulv15647_2 conn=wye bus1=p10ulv15647.2 kV=0.12 Vminpu=0.8 Vmaxpu=1.2 model=1 kW=1.370015 kvar=0.28033667928988826 Phases=1

New Load.load_p10ulv15651_1 conn=wye bus1=p10ulv15651.1 kV=0.12 Vminpu=0.8 Vmaxpu=1.2 model=1 kW=1.375015 kvar=0.27992735125611573 Phases=1

New Load.load_p10ulv15651_2 conn=wye bus1=p10ulv15651.2 kV=0.12 Vminpu=0.8 Vmaxpu=1.2 model=1 kW=1.375015 kvar=0.27992735125611573 Phases=1

New Load.load_p10ulv15655_1 conn=wye bus1=p10ulv15655.1 kV=0.12 Vminpu=0.8 Vmaxpu=1.2 model=1 kW=0.9950100000000001 kvar=0.19995332825032197 Phases=1

New Load.load_p10ulv15655_2 conn=wye bus1=p10ulv15655.2 kV=0.12 Vminpu=0.8 Vmaxpu=1.2 model=1 kW=0.9950100000000001 kvar=0.19995332825032197 Phases=1

New Load.load_p10ulv15656_1 conn=wye bus1=p10ulv15656.1 kV=0.12 Vminpu=0.8 Vmaxpu=1.2 model=1 kW=1.5050150000000002 kvar=0.30481795093825576 Phases=1

New Load.load_p10ulv15656_2 conn=wye bus1=p10ulv15656.2 kV=0.12 Vminpu=0.8 Vmaxpu=1.2 model=1 kW=1.5050150000000002 kvar=0.30481795093825576 Phases=1

New Load.load_p10ulv15657_1 conn=wye bus1=p10ulv15657.1 kV=0.12 Vminpu=0.8 Vmaxpu=1.2 model=1 kW=1.610015 kvar=0.32523879794271704 Phases=1

New Load.load_p10ulv15657_2 conn=wye bus1=p10ulv15657.2 kV=0.12 Vminpu=0.8 Vmaxpu=1.2 model=1 kW=1.610015 kvar=0.32523879794271704 Phases=1

New Load.load_p10ulv15664_1 conn=wye bus1=p10ulv15664.1 kV=0.12 Vminpu=0.8 Vmaxpu=1.2 model=1 kW=1.625015 kvar=0.3299733694101665 Phases=1

New Load.load_p10ulv15664_2 conn=wye bus1=p10ulv15664.2 kV=0.12 Vminpu=0.8 Vmaxpu=1.2 model=1 kW=1.625015 kvar=0.3299733694101665 Phases=1

New Load.load_p10ulv15665_1 conn=wye bus1=p10ulv15665.1 kV=0.12 Vminpu=0.8 Vmaxpu=1.2 model=1 kW=1.330015 kvar=0.2700710645231352 Phases=1

New Load.load_p10ulv15665_2 conn=wye bus1=p10ulv15665.2 kV=0.12 Vminpu=0.8 Vmaxpu=1.2 model=1 kW=1.330015 kvar=0.2700710645231352 Phases=1

New Load.load_p10ulv15667_1 conn=wye bus1=p10ulv15667.1 kV=0.12 Vminpu=0.8 Vmaxpu=1.2 model=1 kW=0.9900100000000001 kvar=0.19999171582331182 Phases=1

New Load.load_p10ulv15667_2 conn=wye bus1=p10ulv15667.2 kV=0.12 Vminpu=0.8 Vmaxpu=1.2 model=1 kW=0.9900100000000001 kvar=0.19999171582331182 Phases=1

New Load.load_p10ulv15669_1 conn=wye bus1=p10ulv15669.1 kV=0.12 Vminpu=0.8 Vmaxpu=1.2 model=1 kW=0.9950100000000001 kvar=0.19995332825032197 Phases=1

New Load.load_p10ulv15669_2 conn=wye bus1=p10ulv15669.2 kV=0.12 Vminpu=0.8 Vmaxpu=1.2 model=1 kW=0.9950100000000001 kvar=0.19995332825032197 Phases=1

New Load.load_p10ulv15670_1 conn=wye bus1=p10ulv15670.1 kV=0.12 Vminpu=0.8 Vmaxpu=1.2 model=1 kW=1.280015 kvar=0.25991813149143494 Phases=1

New Load.load_p10ulv15670_2 conn=wye bus1=p10ulv15670.2 kV=0.12 Vminpu=0.8 Vmaxpu=1.2 model=1 kW=1.280015 kvar=0.25991813149143494 Phases=1

New Load.load_p10ulv15676_1 conn=wye bus1=p10ulv15676.1 kV=0.12 Vminpu=0.8 Vmaxpu=1.2 model=1 kW=1.490015 kvar=0.30021351863737744 Phases=1

New Load.load_p10ulv15676_2 conn=wye bus1=p10ulv15676.2 kV=0.12 Vminpu=0.8 Vmaxpu=1.2 model=1 kW=1.490015 kvar=0.30021351863737744 Phases=1

New Load.load_p10ulv15682_1 conn=wye bus1=p10ulv15682.1 kV=0.12 Vminpu=0.8 Vmaxpu=1.2 model=1 kW=0.98001 kvar=0.20002276057263293 Phases=1

New Load.load_p10ulv15682_2 conn=wye bus1=p10ulv15682.2 kV=0.12 Vminpu=0.8 Vmaxpu=1.2 model=1 kW=0.98001 kvar=0.20002276057263293 Phases=1

New Load.load_p10ulv15683_1 conn=wye bus1=p10ulv15683.1 kV=0.12 Vminpu=0.8 Vmaxpu=1.2 model=1 kW=3.290035 kvar=0.6697896263603776 Phases=1

New Load.load_p10ulv15683_2 conn=wye bus1=p10ulv15683.2 kV=0.12 Vminpu=0.8 Vmaxpu=1.2 model=1 kW=3.290035 kvar=0.6697896263603776 Phases=1

New Load.load_p10ulv15686_1 conn=wye bus1=p10ulv15686.1 kV=0.12 Vminpu=0.8 Vmaxpu=1.2 model=1 kW=1.570015 kvar=0.3196257061794748 Phases=1

New Load.load_p10ulv15686_2 conn=wye bus1=p10ulv15686.2 kV=0.12 Vminpu=0.8 Vmaxpu=1.2 model=1 kW=1.570015 kvar=0.3196257061794748 Phases=1

New Load.load_p10ulv15692_1 conn=wye bus1=p10ulv15692.1 kV=0.12 Vminpu=0.8 Vmaxpu=1.2 model=1 kW=1.22501 kvar=0.2500279404588535 Phases=1

New Load.load_p10ulv15692_2 conn=wye bus1=p10ulv15692.2 kV=0.12 Vminpu=0.8 Vmaxpu=1.2 model=1 kW=1.22501 kvar=0.2500279404588535 Phases=1

New Load.load_p10ulv15705_1 conn=wye bus1=p10ulv15705.1 kV=0.12 Vminpu=0.8 Vmaxpu=1.2 model=1 kW=1.23501 kvar=0.2501325352825422 Phases=1

New Load.load_p10ulv15705_2 conn=wye bus1=p10ulv15705.2 kV=0.12 Vminpu=0.8 Vmaxpu=1.2 model=1 kW=1.23501 kvar=0.2501325352825422 Phases=1

New Load.load_p10ulv15708_1 conn=wye bus1=p10ulv15708.1 kV=0.12 Vminpu=0.8 Vmaxpu=1.2 model=1 kW=1.360015 kvar=0.27473634952721826 Phases=1

New Load.load_p10ulv15708_2 conn=wye bus1=p10ulv15708.2 kV=0.12 Vminpu=0.8 Vmaxpu=1.2 model=1 kW=1.360015 kvar=0.27473634952721826 Phases=1

New Load.load_p10ulv15712_1 conn=wye bus1=p10ulv15712.1 kV=0.12 Vminpu=0.8 Vmaxpu=1.2 model=1 kW=1.565015 kvar=0.3202381785154648 Phases=1

New Load.load_p10ulv15712_2 conn=wye bus1=p10ulv15712.2 kV=0.12 Vminpu=0.8 Vmaxpu=1.2 model=1 kW=1.565015 kvar=0.3202381785154648 Phases=1

New Load.load_p10ulv15714_1 conn=wye bus1=p10ulv15714.1 kV=0.12 Vminpu=0.8 Vmaxpu=1.2 model=1 kW=1.21001 kvar=0.24506916463609923 Phases=1

New Load.load_p10ulv15714_2 conn=wye bus1=p10ulv15714.2 kV=0.12 Vminpu=0.8 Vmaxpu=1.2 model=1 kW=1.21001 kvar=0.24506916463609923 Phases=1

New Load.load_p10ulv15715_1 conn=wye bus1=p10ulv15715.1 kV=0.12 Vminpu=0.8 Vmaxpu=1.2 model=1 kW=3.730035 kvar=0.755461989168199 Phases=1

New Load.load_p10ulv15715_2 conn=wye bus1=p10ulv15715.2 kV=0.12 Vminpu=0.8 Vmaxpu=1.2 model=1 kW=3.730035 kvar=0.755461989168199 Phases=1

New Load.load_p10ulv15716_1 conn=wye bus1=p10ulv15716.1 kV=0.12 Vminpu=0.8 Vmaxpu=1.2 model=1 kW=1.270015 kvar=0.2598743719947208 Phases=1

New Load.load_p10ulv15716_2 conn=wye bus1=p10ulv15716.2 kV=0.12 Vminpu=0.8 Vmaxpu=1.2 model=1 kW=1.270015 kvar=0.2598743719947208 Phases=1

New Load.load_p10ulv15718_1 conn=wye bus1=p10ulv15718.1 kV=0.12 Vminpu=0.8 Vmaxpu=1.2 model=1 kW=1.300015 kvar=0.26533666910116366 Phases=1

New Load.load_p10ulv15718_2 conn=wye bus1=p10ulv15718.2 kV=0.12 Vminpu=0.8 Vmaxpu=1.2 model=1 kW=1.300015 kvar=0.26533666910116366 Phases=1

New Load.load_p10ulv15721_1 conn=wye bus1=p10ulv15721.1 kV=0.12 Vminpu=0.8 Vmaxpu=1.2 model=1 kW=0.720005 kvar=0.14506916674429784 Phases=1

New Load.load_p10ulv15721_2 conn=wye bus1=p10ulv15721.2 kV=0.12 Vminpu=0.8 Vmaxpu=1.2 model=1 kW=0.720005 kvar=0.14506916674429784 Phases=1

New Load.load_p10ulv15725_1 conn=wye bus1=p10ulv15725.1 kV=0.12 Vminpu=0.8 Vmaxpu=1.2 model=1 kW=1.01501 kvar=0.2050419606648617 Phases=1

New Load.load_p10ulv15725_2 conn=wye bus1=p10ulv15725.2 kV=0.12 Vminpu=0.8 Vmaxpu=1.2 model=1 kW=1.01501 kvar=0.2050419606648617 Phases=1

New Load.load_p10ulv15726_1 conn=wye bus1=p10ulv15726.1 kV=0.12 Vminpu=0.8 Vmaxpu=1.2 model=1 kW=1.22001 kvar=0.25027554760115056 Phases=1

New Load.load_p10ulv15726_2 conn=wye bus1=p10ulv15726.2 kV=0.12 Vminpu=0.8 Vmaxpu=1.2 model=1 kW=1.22001 kvar=0.25027554760115056 Phases=1

New Load.load_p10ulv15727_1 conn=wye bus1=p10ulv15727.1 kV=0.12 Vminpu=0.8 Vmaxpu=1.2 model=1 kW=0.9950100000000001 kvar=0.19995332825032197 Phases=1

New Load.load_p10ulv15727_2 conn=wye bus1=p10ulv15727.2 kV=0.12 Vminpu=0.8 Vmaxpu=1.2 model=1 kW=0.9950100000000001 kvar=0.19995332825032197 Phases=1

New Load.load_p10ulv15732_1 conn=wye bus1=p10ulv15732.1 kV=0.12 Vminpu=0.8 Vmaxpu=1.2 model=1 kW=1.375015 kvar=0.27992735125611573 Phases=1

New Load.load_p10ulv15732_2 conn=wye bus1=p10ulv15732.2 kV=0.12 Vminpu=0.8 Vmaxpu=1.2 model=1 kW=1.375015 kvar=0.27992735125611573 Phases=1

New Load.load_p10ulv15733_1 conn=wye bus1=p10ulv15733.1 kV=0.12 Vminpu=0.8 Vmaxpu=1.2 model=1 kW=0.615005 kvar=0.12488209158321581 Phases=1

New Load.load_p10ulv15733_2 conn=wye bus1=p10ulv15733.2 kV=0.12 Vminpu=0.8 Vmaxpu=1.2 model=1 kW=0.615005 kvar=0.12488209158321581 Phases=1

New Load.load_p10ulv15735_1 conn=wye bus1=p10ulv15735.1 kV=0.12 Vminpu=0.8 Vmaxpu=1.2 model=1 kW=1.10001 kvar=0.22508742647757143 Phases=1

New Load.load_p10ulv15735_2 conn=wye bus1=p10ulv15735.2 kV=0.12 Vminpu=0.8 Vmaxpu=1.2 model=1 kW=1.10001 kvar=0.22508742647757143 Phases=1

New Load.load_p10ulv15740_1 conn=wye bus1=p10ulv15740.1 kV=0.12 Vminpu=0.8 Vmaxpu=1.2 model=1 kW=1.475015 kvar=0.30028548198604343 Phases=1

New Load.load_p10ulv15740_2 conn=wye bus1=p10ulv15740.2 kV=0.12 Vminpu=0.8 Vmaxpu=1.2 model=1 kW=1.475015 kvar=0.30028548198604343 Phases=1

New Load.load_p10ulv15741_1 conn=wye bus1=p10ulv15741.1 kV=0.12 Vminpu=0.8 Vmaxpu=1.2 model=1 kW=1.01501 kvar=0.2050419606648617 Phases=1

New Load.load_p10ulv15741_2 conn=wye bus1=p10ulv15741.2 kV=0.12 Vminpu=0.8 Vmaxpu=1.2 model=1 kW=1.01501 kvar=0.2050419606648617 Phases=1

New Load.load_p10ulv15743_1 conn=wye bus1=p10ulv15743.1 kV=0.12 Vminpu=0.8 Vmaxpu=1.2 model=1 kW=0.46500450000000004 kvar=0.09490870885878398 Phases=1

New Load.load_p10ulv15743_2 conn=wye bus1=p10ulv15743.2 kV=0.12 Vminpu=0.8 Vmaxpu=1.2 model=1 kW=0.46500450000000004 kvar=0.09490870885878398 Phases=1

New Load.load_p10ulv15746_1 conn=wye bus1=p10ulv15746.1 kV=0.12 Vminpu=0.8 Vmaxpu=1.2 model=1 kW=1.595015 kvar=0.32471523886195675 Phases=1

New Load.load_p10ulv15746_2 conn=wye bus1=p10ulv15746.2 kV=0.12 Vminpu=0.8 Vmaxpu=1.2 model=1 kW=1.595015 kvar=0.32471523886195675 Phases=1

New Load.load_p10ulv15749_1 conn=wye bus1=p10ulv15749.1 kV=0.12 Vminpu=0.8 Vmaxpu=1.2 model=1 kW=1.08001 kvar=0.21986984769629242 Phases=1

New Load.load_p10ulv15749_2 conn=wye bus1=p10ulv15749.2 kV=0.12 Vminpu=0.8 Vmaxpu=1.2 model=1 kW=1.08001 kvar=0.21986984769629242 Phases=1

New Load.load_p10ulv15750_1 conn=wye bus1=p10ulv15750.1 kV=0.12 Vminpu=0.8 Vmaxpu=1.2 model=1 kW=1.5050150000000002 kvar=0.30481795093825576 Phases=1

New Load.load_p10ulv15750_2 conn=wye bus1=p10ulv15750.2 kV=0.12 Vminpu=0.8 Vmaxpu=1.2 model=1 kW=1.5050150000000002 kvar=0.30481795093825576 Phases=1

New Load.load_p10ulv15752_1 conn=wye bus1=p10ulv15752.1 kV=0.12 Vminpu=0.8 Vmaxpu=1.2 model=1 kW=0.88001 kvar=0.18007035042820305 Phases=1

New Load.load_p10ulv15752_2 conn=wye bus1=p10ulv15752.2 kV=0.12 Vminpu=0.8 Vmaxpu=1.2 model=1 kW=0.88001 kvar=0.18007035042820305 Phases=1

New Load.load_p10ulv15753_1 conn=wye bus1=p10ulv15753.1 kV=0.12 Vminpu=0.8 Vmaxpu=1.2 model=1 kW=1.20501 kvar=0.2446877166505815 Phases=1

New Load.load_p10ulv15753_2 conn=wye bus1=p10ulv15753.2 kV=0.12 Vminpu=0.8 Vmaxpu=1.2 model=1 kW=1.20501 kvar=0.2446877166505815 Phases=1

New Load.load_p10ulv15756_1 conn=wye bus1=p10ulv15756.1 kV=0.12 Vminpu=0.8 Vmaxpu=1.2 model=1 kW=0.80001 kvar=0.16494369115858584 Phases=1

New Load.load_p10ulv15756_2 conn=wye bus1=p10ulv15756.2 kV=0.12 Vminpu=0.8 Vmaxpu=1.2 model=1 kW=0.80001 kvar=0.16494369115858584 Phases=1

New Load.load_p10ulv15760_1 conn=wye bus1=p10ulv15760.1 kV=0.12 Vminpu=0.8 Vmaxpu=1.2 model=1 kW=1.530015 kvar=0.3098813215846988 Phases=1

New Load.load_p10ulv15760_2 conn=wye bus1=p10ulv15760.2 kV=0.12 Vminpu=0.8 Vmaxpu=1.2 model=1 kW=1.530015 kvar=0.3098813215846988 Phases=1

New Load.load_p10ulv15761_1 conn=wye bus1=p10ulv15761.1 kV=0.12 Vminpu=0.8 Vmaxpu=1.2 model=1 kW=1.12501 kvar=0.23020300330136328 Phases=1

New Load.load_p10ulv15761_2 conn=wye bus1=p10ulv15761.2 kV=0.12 Vminpu=0.8 Vmaxpu=1.2 model=1 kW=1.12501 kvar=0.23020300330136328 Phases=1

New Load.load_p10ulv15766_1 conn=wye bus1=p10ulv15766.1 kV=0.12 Vminpu=0.8 Vmaxpu=1.2 model=1 kW=1.24001 kvar=0.249841622564561 Phases=1

New Load.load_p10ulv15766_2 conn=wye bus1=p10ulv15766.2 kV=0.12 Vminpu=0.8 Vmaxpu=1.2 model=1 kW=1.24001 kvar=0.249841622564561 Phases=1

New Load.load_p10ulv15767_1 conn=wye bus1=p10ulv15767.1 kV=0.12 Vminpu=0.8 Vmaxpu=1.2 model=1 kW=1.375015 kvar=0.27992735125611573 Phases=1

New Load.load_p10ulv15767_2 conn=wye bus1=p10ulv15767.2 kV=0.12 Vminpu=0.8 Vmaxpu=1.2 model=1 kW=1.375015 kvar=0.27992735125611573 Phases=1

New Load.load_p10ulv15768_1 conn=wye bus1=p10ulv15768.1 kV=0.12 Vminpu=0.8 Vmaxpu=1.2 model=1 kW=1.2650150000000002 kvar=0.25487971884783844 Phases=1

New Load.load_p10ulv15768_2 conn=wye bus1=p10ulv15768.2 kV=0.12 Vminpu=0.8 Vmaxpu=1.2 model=1 kW=1.2650150000000002 kvar=0.25487971884783844 Phases=1

New Load.load_p10ulv15772_1 conn=wye bus1=p10ulv15772.1 kV=0.12 Vminpu=0.8 Vmaxpu=1.2 model=1 kW=3.6600350000000006 kvar=0.7451147100611104 Phases=1

New Load.load_p10ulv15772_2 conn=wye bus1=p10ulv15772.2 kV=0.12 Vminpu=0.8 Vmaxpu=1.2 model=1 kW=3.6600350000000006 kvar=0.7451147100611104 Phases=1

New Load.load_p10ulv15773_1 conn=wye bus1=p10ulv15773.1 kV=0.12 Vminpu=0.8 Vmaxpu=1.2 model=1 kW=1.420015 kvar=0.28982900210665946 Phases=1

New Load.load_p10ulv15773_2 conn=wye bus1=p10ulv15773.2 kV=0.12 Vminpu=0.8 Vmaxpu=1.2 model=1 kW=1.420015 kvar=0.28982900210665946 Phases=1

New Load.load_p10ulv15777_1 conn=wye bus1=p10ulv15761.1 kV=0.12 Vminpu=0.8 Vmaxpu=1.2 model=1 kW=1.335015 kvar=0.26968610468566845 Phases=1

New Load.load_p10ulv15777_2 conn=wye bus1=p10ulv15761.2 kV=0.12 Vminpu=0.8 Vmaxpu=1.2 model=1 kW=1.335015 kvar=0.26968610468566845 Phases=1

New Load.load_p10ulv15778_1 conn=wye bus1=p10ulv15778.1 kV=0.12 Vminpu=0.8 Vmaxpu=1.2 model=1 kW=2.82503 kvar=0.5751233005596771 Phases=1

New Load.load_p10ulv15778_2 conn=wye bus1=p10ulv15778.2 kV=0.12 Vminpu=0.8 Vmaxpu=1.2 model=1 kW=2.82503 kvar=0.5751233005596771 Phases=1

New Load.load_p10ulv15780_1 conn=wye bus1=p10ulv15780.1 kV=0.12 Vminpu=0.8 Vmaxpu=1.2 model=1 kW=1.2550150000000002 kvar=0.2548416649755849 Phases=1

New Load.load_p10ulv15780_2 conn=wye bus1=p10ulv15780.2 kV=0.12 Vminpu=0.8 Vmaxpu=1.2 model=1 kW=1.2550150000000002 kvar=0.2548416649755849 Phases=1

New Load.load_p10ulv15782_1 conn=wye bus1=p10ulv15782.1 kV=0.12 Vminpu=0.8 Vmaxpu=1.2 model=1 kW=1.495015 kvar=0.3051367102350943 Phases=1

New Load.load_p10ulv15782_2 conn=wye bus1=p10ulv15782.2 kV=0.12 Vminpu=0.8 Vmaxpu=1.2 model=1 kW=1.495015 kvar=0.3051367102350943 Phases=1

New Load.load_p10ulv15784_1 conn=wye bus1=p10ulv15784.1 kV=0.12 Vminpu=0.8 Vmaxpu=1.2 model=1 kW=1.475015 kvar=0.30028548198604343 Phases=1

New Load.load_p10ulv15784_2 conn=wye bus1=p10ulv15784.2 kV=0.12 Vminpu=0.8 Vmaxpu=1.2 model=1 kW=1.475015 kvar=0.30028548198604343 Phases=1

New Load.load_p10ulv15788_1 conn=wye bus1=p10ulv15788.1 kV=0.12 Vminpu=0.8 Vmaxpu=1.2 model=1 kW=1.01001 kvar=0.2050912778269507 Phases=1

New Load.load_p10ulv15788_2 conn=wye bus1=p10ulv15788.2 kV=0.12 Vminpu=0.8 Vmaxpu=1.2 model=1 kW=1.01001 kvar=0.2050912778269507 Phases=1

New Load.load_p10ulv15791_1 conn=wye bus1=p10ulv15791.1 kV=0.12 Vminpu=0.8 Vmaxpu=1.2 model=1 kW=1.10001 kvar=0.22508742647757143 Phases=1

New Load.load_p10ulv15791_2 conn=wye bus1=p10ulv15791.2 kV=0.12 Vminpu=0.8 Vmaxpu=1.2 model=1 kW=1.10001 kvar=0.22508742647757143 Phases=1

New Load.load_p10ulv15795_1 conn=wye bus1=p10ulv15795.1 kV=0.12 Vminpu=0.8 Vmaxpu=1.2 model=1 kW=1.6600150000000002 kvar=0.33533928762581683 Phases=1

New Load.load_p10ulv15795_2 conn=wye bus1=p10ulv15795.2 kV=0.12 Vminpu=0.8 Vmaxpu=1.2 model=1 kW=1.6600150000000002 kvar=0.33533928762581683 Phases=1

New Load.load_p10ulv15796_1 conn=wye bus1=p10ulv15796.1 kV=0.12 Vminpu=0.8 Vmaxpu=1.2 model=1 kW=1.435015 kvar=0.2898870840518679 Phases=1

New Load.load_p10ulv15796_2 conn=wye bus1=p10ulv15796.2 kV=0.12 Vminpu=0.8 Vmaxpu=1.2 model=1 kW=1.435015 kvar=0.2898870840518679 Phases=1

New Load.load_p10ulv15799_1 conn=wye bus1=p10ulv15799.1 kV=0.12 Vminpu=0.8 Vmaxpu=1.2 model=1 kW=1.04501 kvar=0.21000113320958477 Phases=1

New Load.load_p10ulv15799_2 conn=wye bus1=p10ulv15799.2 kV=0.12 Vminpu=0.8 Vmaxpu=1.2 model=1 kW=1.04501 kvar=0.21000113320958477 Phases=1

New Load.load_p10ulv15800_1 conn=wye bus1=p10ulv15800.1 kV=0.12 Vminpu=0.8 Vmaxpu=1.2 model=1 kW=1.03001 kvar=0.21022789932492286 Phases=1

New Load.load_p10ulv15800_2 conn=wye bus1=p10ulv15800.2 kV=0.12 Vminpu=0.8 Vmaxpu=1.2 model=1 kW=1.03001 kvar=0.21022789932492286 Phases=1

New Load.load_p10ulv15802_1 conn=wye bus1=p10ulv15733.1 kV=0.12 Vminpu=0.8 Vmaxpu=1.2 model=1 kW=0.79001 kvar=0.16000453777585702 Phases=1

New Load.load_p10ulv15802_2 conn=wye bus1=p10ulv15733.2 kV=0.12 Vminpu=0.8 Vmaxpu=1.2 model=1 kW=0.79001 kvar=0.16000453777585702 Phases=1

New Load.load_p10ulv15804_1 conn=wye bus1=p10ulv15804.1 kV=0.12 Vminpu=0.8 Vmaxpu=1.2 model=1 kW=1.310015 kvar=0.26532365989600043 Phases=1

New Load.load_p10ulv15804_2 conn=wye bus1=p10ulv15804.2 kV=0.12 Vminpu=0.8 Vmaxpu=1.2 model=1 kW=1.310015 kvar=0.26532365989600043 Phases=1

New Load.load_p10ulv15809_1 conn=wye bus1=p10ulv15809.1 kV=0.12 Vminpu=0.8 Vmaxpu=1.2 model=1 kW=1.280015 kvar=0.25991813149143494 Phases=1

New Load.load_p10ulv15809_2 conn=wye bus1=p10ulv15809.2 kV=0.12 Vminpu=0.8 Vmaxpu=1.2 model=1 kW=1.280015 kvar=0.25991813149143494 Phases=1

New Load.load_p10ulv15810_1 conn=wye bus1=p10ulv15810.1 kV=0.12 Vminpu=0.8 Vmaxpu=1.2 model=1 kW=1.13501 kvar=0.22987905269677025 Phases=1

New Load.load_p10ulv15810_2 conn=wye bus1=p10ulv15810.2 kV=0.12 Vminpu=0.8 Vmaxpu=1.2 model=1 kW=1.13501 kvar=0.22987905269677025 Phases=1

New Load.load_p10ulv15814_1 conn=wye bus1=p10ulv15814.1 kV=0.12 Vminpu=0.8 Vmaxpu=1.2 model=1 kW=1.16501 kvar=0.234730355968048 Phases=1

New Load.load_p10ulv15814_2 conn=wye bus1=p10ulv15814.2 kV=0.12 Vminpu=0.8 Vmaxpu=1.2 model=1 kW=1.16501 kvar=0.234730355968048 Phases=1

New Load.load_p10ulv15815_1 conn=wye bus1=p10ulv15815.1 kV=0.12 Vminpu=0.8 Vmaxpu=1.2 model=1 kW=1.13501 kvar=0.22987905269677025 Phases=1

New Load.load_p10ulv15815_2 conn=wye bus1=p10ulv15815.2 kV=0.12 Vminpu=0.8 Vmaxpu=1.2 model=1 kW=1.13501 kvar=0.22987905269677025 Phases=1

New Load.load_p10ulv15817_1 conn=wye bus1=p10ulv15817.1 kV=0.12 Vminpu=0.8 Vmaxpu=1.2 model=1 kW=1.585015 kvar=0.3201885531011673 Phases=1

New Load.load_p10ulv15817_2 conn=wye bus1=p10ulv15817.2 kV=0.12 Vminpu=0.8 Vmaxpu=1.2 model=1 kW=1.585015 kvar=0.3201885531011673 Phases=1

New Load.load_p10ulv15820_1 conn=wye bus1=p10ulv15820.1 kV=0.12 Vminpu=0.8 Vmaxpu=1.2 model=1 kW=8.8901 kvar=1.8052117989023617 Phases=1

New Load.load_p10ulv15820_2 conn=wye bus1=p10ulv15820.2 kV=0.12 Vminpu=0.8 Vmaxpu=1.2 model=1 kW=8.8901 kvar=1.8052117989023617 Phases=1

New Load.load_p10ulv15821_1 conn=wye bus1=p10ulv15821.1 kV=0.12 Vminpu=0.8 Vmaxpu=1.2 model=1 kW=1.14001 kvar=0.23029318487261108 Phases=1

New Load.load_p10ulv15821_2 conn=wye bus1=p10ulv15821.2 kV=0.12 Vminpu=0.8 Vmaxpu=1.2 model=1 kW=1.14001 kvar=0.23029318487261108 Phases=1

New Load.load_p10ulv15823_1 conn=wye bus1=p10ulv15823.1 kV=0.12 Vminpu=0.8 Vmaxpu=1.2 model=1 kW=1.355015 kvar=0.2751475310389853 Phases=1

New Load.load_p10ulv15823_2 conn=wye bus1=p10ulv15823.2 kV=0.12 Vminpu=0.8 Vmaxpu=1.2 model=1 kW=1.355015 kvar=0.2751475310389853 Phases=1

New Load.load_p10ulv15825_1 conn=wye bus1=p10ulv15825.1 kV=0.12 Vminpu=0.8 Vmaxpu=1.2 model=1 kW=1.80502 kvar=0.36463171775577446 Phases=1

New Load.load_p10ulv15825_2 conn=wye bus1=p10ulv15825.2 kV=0.12 Vminpu=0.8 Vmaxpu=1.2 model=1 kW=1.80502 kvar=0.36463171775577446 Phases=1

New Load.load_p10ulv15826_1 conn=wye bus1=p10ulv15705.1 kV=0.12 Vminpu=0.8 Vmaxpu=1.2 model=1 kW=1.700015 kvar=0.3452027689577168 Phases=1

New Load.load_p10ulv15826_2 conn=wye bus1=p10ulv15705.2 kV=0.12 Vminpu=0.8 Vmaxpu=1.2 model=1 kW=1.700015 kvar=0.3452027689577168 Phases=1

New Load.load_p10ulv15827_1 conn=wye bus1=p10ulv15827.1 kV=0.12 Vminpu=0.8 Vmaxpu=1.2 model=1 kW=1.5350150000000002 kvar=0.3100880634180675 Phases=1

New Load.load_p10ulv15827_2 conn=wye bus1=p10ulv15827.2 kV=0.12 Vminpu=0.8 Vmaxpu=1.2 model=1 kW=1.5350150000000002 kvar=0.3100880634180675 Phases=1

New Load.load_p10ulv15828_1 conn=wye bus1=p10ulv15828.1 kV=0.12 Vminpu=0.8 Vmaxpu=1.2 model=1 kW=0.98001 kvar=0.20002276057263293 Phases=1

New Load.load_p10ulv15828_2 conn=wye bus1=p10ulv15828.2 kV=0.12 Vminpu=0.8 Vmaxpu=1.2 model=1 kW=0.98001 kvar=0.20002276057263293 Phases=1

New Load.load_p10ulv15831_1 conn=wye bus1=p10ulv15831.1 kV=0.12 Vminpu=0.8 Vmaxpu=1.2 model=1 kW=1.09001 kvar=0.22019269518951132 Phases=1

New Load.load_p10ulv15831_2 conn=wye bus1=p10ulv15831.2 kV=0.12 Vminpu=0.8 Vmaxpu=1.2 model=1 kW=1.09001 kvar=0.22019269518951132 Phases=1

New Load.load_p10ulv15832_1 conn=wye bus1=p10ulv15832.1 kV=0.12 Vminpu=0.8 Vmaxpu=1.2 model=1 kW=1.5250150000000002 kvar=0.30966750334676607 Phases=1

New Load.load_p10ulv15832_2 conn=wye bus1=p10ulv15832.2 kV=0.12 Vminpu=0.8 Vmaxpu=1.2 model=1 kW=1.5250150000000002 kvar=0.30966750334676607 Phases=1

New Load.load_p10ulv15837_1 conn=wye bus1=p10ulv15837.1 kV=0.12 Vminpu=0.8 Vmaxpu=1.2 model=1 kW=0.93501 kvar=0.18986187827940035 Phases=1

New Load.load_p10ulv15837_2 conn=wye bus1=p10ulv15837.2 kV=0.12 Vminpu=0.8 Vmaxpu=1.2 model=1 kW=0.93501 kvar=0.18986187827940035 Phases=1

New Load.load_p10ulv15838_1 conn=wye bus1=p10ulv15838.1 kV=0.12 Vminpu=0.8 Vmaxpu=1.2 model=1 kW=1.280015 kvar=0.25991813149143494 Phases=1

New Load.load_p10ulv15838_2 conn=wye bus1=p10ulv15838.2 kV=0.12 Vminpu=0.8 Vmaxpu=1.2 model=1 kW=1.280015 kvar=0.25991813149143494 Phases=1

New Load.load_p10ulv15840_1 conn=wye bus1=p10ulv15840.1 kV=0.12 Vminpu=0.8 Vmaxpu=1.2 model=1 kW=1.17001 kvar=0.24001843710200912 Phases=1

New Load.load_p10ulv15840_2 conn=wye bus1=p10ulv15840.2 kV=0.12 Vminpu=0.8 Vmaxpu=1.2 model=1 kW=1.17001 kvar=0.24001843710200912 Phases=1

New Load.load_p10ulv15843_1 conn=wye bus1=p10ulv15843.1 kV=0.12 Vminpu=0.8 Vmaxpu=1.2 model=1 kW=1.01501 kvar=0.2050419606648617 Phases=1

New Load.load_p10ulv15843_2 conn=wye bus1=p10ulv15843.2 kV=0.12 Vminpu=0.8 Vmaxpu=1.2 model=1 kW=1.01501 kvar=0.2050419606648617 Phases=1

New Load.load_p10ulv15844_1 conn=wye bus1=p10ulv15655.1 kV=0.12 Vminpu=0.8 Vmaxpu=1.2 model=1 kW=1.1850100000000001 kvar=0.24000579398965624 Phases=1

New Load.load_p10ulv15844_2 conn=wye bus1=p10ulv15655.2 kV=0.12 Vminpu=0.8 Vmaxpu=1.2 model=1 kW=1.1850100000000001 kvar=0.24000579398965624 Phases=1

New Load.load_p10ulv15847_1 conn=wye bus1=p10ulv15847.1 kV=0.12 Vminpu=0.8 Vmaxpu=1.2 model=1 kW=1.23001 kvar=0.24976418316643162 Phases=1

New Load.load_p10ulv15847_2 conn=wye bus1=p10ulv15847.2 kV=0.12 Vminpu=0.8 Vmaxpu=1.2 model=1 kW=1.23001 kvar=0.24976418316643162 Phases=1

New Load.load_p10ulv15851_1 conn=wye bus1=p10ulv15851.1 kV=0.12 Vminpu=0.8 Vmaxpu=1.2 model=1 kW=0.91501 kvar=0.18484098129866214 Phases=1

New Load.load_p10ulv15851_2 conn=wye bus1=p10ulv15851.2 kV=0.12 Vminpu=0.8 Vmaxpu=1.2 model=1 kW=0.91501 kvar=0.18484098129866214 Phases=1

New Load.load_p10ulv15853_1 conn=wye bus1=p10ulv15726.1 kV=0.12 Vminpu=0.8 Vmaxpu=1.2 model=1 kW=1.21001 kvar=0.24506916463609923 Phases=1

New Load.load_p10ulv15853_2 conn=wye bus1=p10ulv15726.2 kV=0.12 Vminpu=0.8 Vmaxpu=1.2 model=1 kW=1.21001 kvar=0.24506916463609923 Phases=1

New Load.load_p10ulv15856_1 conn=wye bus1=p10ulv15856.1 kV=0.12 Vminpu=0.8 Vmaxpu=1.2 model=1 kW=0.93001 kvar=0.18981762182034304 Phases=1

New Load.load_p10ulv15856_2 conn=wye bus1=p10ulv15856.2 kV=0.12 Vminpu=0.8 Vmaxpu=1.2 model=1 kW=0.93001 kvar=0.18981762182034304 Phases=1

New Load.load_p10ulv15857_1 conn=wye bus1=p10ulv15857.1 kV=0.12 Vminpu=0.8 Vmaxpu=1.2 model=1 kW=1.420015 kvar=0.28982900210665946 Phases=1

New Load.load_p10ulv15857_2 conn=wye bus1=p10ulv15857.2 kV=0.12 Vminpu=0.8 Vmaxpu=1.2 model=1 kW=1.420015 kvar=0.28982900210665946 Phases=1

New Load.load_p10ulv15860_1 conn=wye bus1=p10ulv15860.1 kV=0.12 Vminpu=0.8 Vmaxpu=1.2 model=1 kW=0.98001 kvar=0.20002276057263293 Phases=1

New Load.load_p10ulv15860_2 conn=wye bus1=p10ulv15860.2 kV=0.12 Vminpu=0.8 Vmaxpu=1.2 model=1 kW=0.98001 kvar=0.20002276057263293 Phases=1

New Load.load_p10ulv15865_1 conn=wye bus1=p10ulv15865.1 kV=0.12 Vminpu=0.8 Vmaxpu=1.2 model=1 kW=1.02001 kvar=0.20497723072995336 Phases=1

New Load.load_p10ulv15865_2 conn=wye bus1=p10ulv15865.2 kV=0.12 Vminpu=0.8 Vmaxpu=1.2 model=1 kW=1.02001 kvar=0.20497723072995336 Phases=1

New Load.load_p10ulv15866 conn=delta bus1=p10ulv15866.1.2.3 kV=0.48 Vminpu=0.8 Vmaxpu=1.2 model=1 kW=25.4703 kvar=5.17196500394628 Phases=3

New Load.load_p10ulv15868_1 conn=wye bus1=p10ulv15692.1 kV=0.12 Vminpu=0.8 Vmaxpu=1.2 model=1 kW=2.630025 kvar=0.5354239277297815 Phases=1

New Load.load_p10ulv15868_2 conn=wye bus1=p10ulv15692.2 kV=0.12 Vminpu=0.8 Vmaxpu=1.2 model=1 kW=2.630025 kvar=0.5354239277297815 Phases=1

New Load.load_p10ulv15870_1 conn=wye bus1=p10ulv15870.1 kV=0.12 Vminpu=0.8 Vmaxpu=1.2 model=1 kW=1.04501 kvar=0.21000113320958477 Phases=1

New Load.load_p10ulv15870_2 conn=wye bus1=p10ulv15870.2 kV=0.12 Vminpu=0.8 Vmaxpu=1.2 model=1 kW=1.04501 kvar=0.21000113320958477 Phases=1

New Load.load_p10ulv15871_1 conn=wye bus1=p10ulv15871.1 kV=0.12 Vminpu=0.8 Vmaxpu=1.2 model=1 kW=0.280003 kvar=0.0550742040398118 Phases=1

New Load.load_p10ulv15871_2 conn=wye bus1=p10ulv15871.2 kV=0.12 Vminpu=0.8 Vmaxpu=1.2 model=1 kW=0.280003 kvar=0.0550742040398118 Phases=1

New Load.load_p10ulv15879_1 conn=wye bus1=p10ulv15879.1 kV=0.12 Vminpu=0.8 Vmaxpu=1.2 model=1 kW=1.15001 kvar=0.23472023233041867 Phases=1

New Load.load_p10ulv15879_2 conn=wye bus1=p10ulv15879.2 kV=0.12 Vminpu=0.8 Vmaxpu=1.2 model=1 kW=1.15001 kvar=0.23472023233041867 Phases=1

New Load.load_p10ulv15883_1 conn=wye bus1=p10ulv15883.1 kV=0.12 Vminpu=0.8 Vmaxpu=1.2 model=1 kW=7.01005 kvar=1.4234513639774016 Phases=1

New Load.load_p10ulv15883_2 conn=wye bus1=p10ulv15883.2 kV=0.12 Vminpu=0.8 Vmaxpu=1.2 model=1 kW=7.01005 kvar=1.4234513639774016 Phases=1
