New Load.load_p10ulv10698 conn=delta bus1=p10ulv10698.1.2.3 kV=0.48 Vminpu=0.8 Vmaxpu=1.2 model=1 kW=5.87006 kvar=1.1888915798743651 Phases=3

New Load.load_p10ulv10700 conn=delta bus1=p10ulv10700.1.2.3 kV=0.48 Vminpu=0.8 Vmaxpu=1.2 model=1 kW=0.870009 kvar=0.1798245473795246 Phases=3

New Load.load_p10ulv10701 conn=delta bus1=p10ulv10701.1.2.3 kV=0.48 Vminpu=0.8 Vmaxpu=1.2 model=1 kW=1.14001 kvar=0.23029318487261105 Phases=3

New Load.load_p10ulv10703 conn=delta bus1=p10ulv10703.1.2.3 kV=0.48 Vminpu=0.8 Vmaxpu=1.2 model=1 kW=1.61002 kvar=0.3302830609165535 Phases=3

New Load.load_p10ulv11253 conn=delta bus1=p10ulv11253.1.2.3 kV=0.48 Vminpu=0.8 Vmaxpu=1.2 model=1 kW=0.6700070000000001 kvar=0.13986020596735307 Phases=3

New Load.load_p10ulv11274 conn=delta bus1=p10ulv11274.1.2.3 kV=0.48 Vminpu=0.8 Vmaxpu=1.2 model=1 kW=8.35008 kvar=1.6999202024535494 Phases=3

New Load.load_p10ulv11426 conn=delta bus1=p10ulv11426.1.2.3 kV=0.48 Vminpu=0.8 Vmaxpu=1.2 model=1 kW=1.69002 kvar=0.33961982674506697 Phases=3

New Load.load_p10ulv11428 conn=delta bus1=p10ulv11428.1.2.3 kV=0.48 Vminpu=0.8 Vmaxpu=1.2 model=1 kW=0.580006 kvar=0.11988303158634975 Phases=3

New Load.load_p10ulv11431 conn=delta bus1=p10ulv11431.1.2.3 kV=0.48 Vminpu=0.8 Vmaxpu=1.2 model=1 kW=6.34006 kvar=1.2907177031558559 Phases=3

New Load.load_p10ulv11433 conn=delta bus1=p10ulv11433.1.2.3 kV=0.48 Vminpu=0.8 Vmaxpu=1.2 model=1 kW=9.49009 kvar=1.9320049285877978 Phases=3

New Load.load_p10ulv11436 conn=delta bus1=p10ulv11436.1.2.3 kV=0.48 Vminpu=0.8 Vmaxpu=1.2 model=1 kW=0.870009 kvar=0.1798245473795246 Phases=3

New Load.load_p10ulv11448 conn=delta bus1=p10ulv11448.1.2.3 kV=0.48 Vminpu=0.8 Vmaxpu=1.2 model=1 kW=2.32002 kvar=0.4698848466864265 Phases=3

New Load.load_p10ulv11453 conn=delta bus1=p10ulv11453.1.2.3 kV=0.48 Vminpu=0.8 Vmaxpu=1.2 model=1 kW=0.440004 kvar=0.09003497059102857 Phases=3

New Load.load_p10ulv11472 conn=delta bus1=p10ulv11472.1.2.3 kV=0.48 Vminpu=0.8 Vmaxpu=1.2 model=1 kW=2.00002 kvar=0.41028852280985656 Phases=3

New Load.load_p10ulv11473 conn=delta bus1=p10ulv11473.1.2.3 kV=0.48 Vminpu=0.8 Vmaxpu=1.2 model=1 kW=12.710099999999999 kvar=2.580895882524258 Phases=3

New Load.load_p10ulv11474 conn=delta bus1=p10ulv11474.1.2.3 kV=0.48 Vminpu=0.8 Vmaxpu=1.2 model=1 kW=0.9400089999999999 kvar=0.1898910241304184 Phases=3

New Load.load_p10ulv11479 conn=delta bus1=p10ulv11479.1.2.3 kV=0.48 Vminpu=0.8 Vmaxpu=1.2 model=1 kW=2.8800299999999996 kvar=0.589320588793011 Phases=3

New Load.load_p10ulv11482 conn=delta bus1=p10ulv11482.1.2.3 kV=0.48 Vminpu=0.8 Vmaxpu=1.2 model=1 kW=2.70003 kvar=0.5496756371472675 Phases=3

New Load.load_p10ulv11483 conn=delta bus1=p10ulv11483.1.2.3 kV=0.48 Vminpu=0.8 Vmaxpu=1.2 model=1 kW=0.5300050000000001 kvar=0.11009305635610007 Phases=3

New Load.load_p10ulv11487 conn=delta bus1=p10ulv11487.1.2.3 kV=0.48 Vminpu=0.8 Vmaxpu=1.2 model=1 kW=2.5700299999999996 kvar=0.5205205784991149 Phases=3

New Load.load_p10ulv11491 conn=delta bus1=p10ulv11491.1.2.3 kV=0.48 Vminpu=0.8 Vmaxpu=1.2 model=1 kW=1.99002 kvar=0.3999066565006438 Phases=3

New Load.load_p10ulv11496 conn=delta bus1=p10ulv11496.1.2.3 kV=0.48 Vminpu=0.8 Vmaxpu=1.2 model=1 kW=1.26001 kvar=0.2597851280568115 Phases=3

New Load.load_p10ulv11500 conn=delta bus1=p10ulv11500.1.2.3 kV=0.48 Vminpu=0.8 Vmaxpu=1.2 model=1 kW=11.3801 kvar=2.3108278638810322 Phases=3

New Load.load_p10ulv12873 conn=delta bus1=p10ulv12873.1.2.3 kV=0.48 Vminpu=0.8 Vmaxpu=1.2 model=1 kW=0.520005 kvar=0.11013146298366969 Phases=3

New Load.load_p10ulv12876 conn=delta bus1=p10ulv12876.1.2.3 kV=0.48 Vminpu=0.8 Vmaxpu=1.2 model=1 kW=1.23001 kvar=0.24976418316643162 Phases=3

New Load.load_p10ulv12880 conn=delta bus1=p10ulv12880.1.2.3 kV=0.48 Vminpu=0.8 Vmaxpu=1.2 model=1 kW=7.140070000000001 kvar=1.4498530510330352 Phases=3

New Load.load_p10ulv13263 conn=delta bus1=p10ulv13263.1.2.3 kV=0.48 Vminpu=0.8 Vmaxpu=1.2 model=1 kW=1.5300199999999997 kvar=0.309882334258828 Phases=3

New Load.load_p10ulv13268 conn=delta bus1=p10ulv13268.1.2.3 kV=0.48 Vminpu=0.8 Vmaxpu=1.2 model=1 kW=1.61002 kvar=0.3302830609165535 Phases=3

New Load.load_p10ulv13274 conn=delta bus1=p10ulv13274.1.2.3 kV=0.48 Vminpu=0.8 Vmaxpu=1.2 model=1 kW=1.13001 kvar=0.2300489130612563 Phases=3

New Load.load_p10ulv13282 conn=delta bus1=p10ulv13282.1.2.3 kV=0.48 Vminpu=0.8 Vmaxpu=1.2 model=1 kW=6.83007 kvar=1.3904745795455746 Phases=3

New Load.load_p10ulv13292 conn=delta bus1=p10ulv13292.1.2.3 kV=0.48 Vminpu=0.8 Vmaxpu=1.2 model=1 kW=2.17002 kvar=0.4395046228077686 Phases=3

New Load.load_p10ulv13295 conn=delta bus1=p10ulv13295.1.2.3 kV=0.48 Vminpu=0.8 Vmaxpu=1.2 model=1 kW=1.89002 kvar=0.3798110465821183 Phases=3

New Load.load_p10ulv13305 conn=delta bus1=p10ulv13305.1.2.3 kV=0.48 Vminpu=0.8 Vmaxpu=1.2 model=1 kW=1.9200200000000005 kvar=0.389876689590501 Phases=3

New Load.load_p10ulv13311 conn=delta bus1=p10ulv13311.1.2.3 kV=0.48 Vminpu=0.8 Vmaxpu=1.2 model=1 kW=2.97003 kvar=0.5999751474699354 Phases=3

New Load.load_p10ulv13315 conn=delta bus1=p10ulv13315.1.2.3 kV=0.48 Vminpu=0.8 Vmaxpu=1.2 model=1 kW=0.460005 kvar=0.08998270614865667 Phases=3

New Load.load_p10ulv13323 conn=delta bus1=p10ulv13323.1.2.3 kV=0.48 Vminpu=0.8 Vmaxpu=1.2 model=1 kW=7.850080000000001 kvar=1.5899145857691674 Phases=3

New Load.load_p10ulv13324 conn=delta bus1=p10ulv13324.1.2.3 kV=0.48 Vminpu=0.8 Vmaxpu=1.2 model=1 kW=2.46002 kvar=0.49952836633286324 Phases=3

New Load.load_p10ulv13325 conn=delta bus1=p10ulv13325.1.2.3 kV=0.48 Vminpu=0.8 Vmaxpu=1.2 model=1 kW=4.01004 kvar=0.8100673529763471 Phases=3

New Load.load_p10ulv13327 conn=delta bus1=p10ulv13327.1.2.3 kV=0.48 Vminpu=0.8 Vmaxpu=1.2 model=1 kW=2.19002 kvar=0.45039994024279406 Phases=3

New Load.load_p10ulv13331 conn=delta bus1=p10ulv13331.1.2.3 kV=0.48 Vminpu=0.8 Vmaxpu=1.2 model=1 kW=0.860009 kvar=0.170079913783505 Phases=3

New Load.load_p10ulv13338 conn=delta bus1=p10ulv13338.1.2.3 kV=0.48 Vminpu=0.8 Vmaxpu=1.2 model=1 kW=21.720200000000002 kvar=4.410474720702699 Phases=3

New Load.load_p10ulv13342 conn=delta bus1=p10ulv13342.1.2.3 kV=0.48 Vminpu=0.8 Vmaxpu=1.2 model=1 kW=1.00001 kvar=0.19989949930847678 Phases=3

New Load.load_p10ulv13343 conn=delta bus1=p10ulv13343.1.2.3 kV=0.48 Vminpu=0.8 Vmaxpu=1.2 model=1 kW=4.67005 kvar=0.9507348841529897 Phases=3

New Load.load_p10ulv13348 conn=delta bus1=p10ulv13348.1.2.3 kV=0.48 Vminpu=0.8 Vmaxpu=1.2 model=1 kW=3.59004 kvar=0.7308650364566973 Phases=3

New Load.load_p10ulv13350 conn=delta bus1=p10ulv13350.1.2.3 kV=0.48 Vminpu=0.8 Vmaxpu=1.2 model=1 kW=3.69004 kvar=0.7492945800859012 Phases=3

New Load.load_p10ulv13352 conn=delta bus1=p10ulv13352.1.2.3 kV=0.48 Vminpu=0.8 Vmaxpu=1.2 model=1 kW=11.3601 kvar=2.31270400905052 Phases=3

New Load.load_p10ulv14490 conn=delta bus1=p10ulv14490.1.2.3 kV=0.48 Vminpu=0.8 Vmaxpu=1.2 model=1 kW=5.33005 kvar=1.0795207485629381 Phases=3

New Load.load_p10ulv14491 conn=delta bus1=p10ulv14491.1.2.3 kV=0.48 Vminpu=0.8 Vmaxpu=1.2 model=1 kW=2.62003 kvar=0.5306473197920009 Phases=3

New Load.load_p10ulv14493 conn=delta bus1=p10ulv14493.1.2.3 kV=0.48 Vminpu=0.8 Vmaxpu=1.2 model=1 kW=6.72007 kvar=1.3610482072016854 Phases=3

New Load.load_p10ulv14496 conn=delta bus1=p10ulv14496.1.2.3 kV=0.48 Vminpu=0.8 Vmaxpu=1.2 model=1 kW=6.74007 kvar=1.3686295867794334 Phases=3

New Load.load_p10ulv14511 conn=delta bus1=p10ulv14511.1.2.3 kV=0.48 Vminpu=0.8 Vmaxpu=1.2 model=1 kW=0.9900100000000001 kvar=0.19999171582331182 Phases=3

New Load.load_p10ulv14513 conn=delta bus1=p10ulv14513.1.2.3 kV=0.48 Vminpu=0.8 Vmaxpu=1.2 model=1 kW=1.31001 kvar=0.2700939798935751 Phases=3

New Load.load_p10ulv18082 conn=delta bus1=p10ulv18082.1.2.3 kV=0.48 Vminpu=0.8 Vmaxpu=1.2 model=1 kW=1.65002 kvar=0.3401962341539353 Phases=3

New Load.load_p10ulv18109 conn=delta bus1=p10ulv18109.1.2.3 kV=0.48 Vminpu=0.8 Vmaxpu=1.2 model=1 kW=7.12007 kvar=1.449513158662365 Phases=3

New Load.load_p10ulv19073 conn=delta bus1=p10ulv19073.1.2.3 kV=0.48 Vminpu=0.8 Vmaxpu=1.2 model=1 kW=2.02002 kvar=0.4101825556539013 Phases=3

New Load.load_p10ulv21136 conn=delta bus1=p10ulv21136.1.2.3 kV=0.48 Vminpu=0.8 Vmaxpu=1.2 model=1 kW=9.7701 kvar=1.9787855021125056 Phases=3

New Load.load_p10ulv21142 conn=delta bus1=p10ulv21142.1.2.3 kV=0.48 Vminpu=0.8 Vmaxpu=1.2 model=1 kW=1.71002 kvar=0.34990954720882234 Phases=3

New Load.load_p10ulv21143 conn=delta bus1=p10ulv21143.1.2.3 kV=0.48 Vminpu=0.8 Vmaxpu=1.2 model=1 kW=1.68002 kvar=0.34026255813748596 Phases=3

New Load.load_p10ulv21144 conn=delta bus1=p10ulv21144.1.2.3 kV=0.48 Vminpu=0.8 Vmaxpu=1.2 model=1 kW=4.060040000000001 kvar=0.8201678426594468 Phases=3

New Load.load_p10ulv21145 conn=delta bus1=p10ulv21145.1.2.3 kV=0.48 Vminpu=0.8 Vmaxpu=1.2 model=1 kW=6.81007 kvar=1.37927634152888 Phases=3

New Load.load_p10ulv21146 conn=delta bus1=p10ulv21146.1.2.3 kV=0.48 Vminpu=0.8 Vmaxpu=1.2 model=1 kW=0.560006 kvar=0.1101484080796236 Phases=3

New Load.load_p10ulv21147 conn=delta bus1=p10ulv21147.1.2.3 kV=0.48 Vminpu=0.8 Vmaxpu=1.2 model=1 kW=2.00002 kvar=0.41028852280985656 Phases=3

New Load.load_p10ulv21148 conn=delta bus1=p10ulv21148.1.2.3 kV=0.48 Vminpu=0.8 Vmaxpu=1.2 model=1 kW=3.2700300000000007 kvar=0.6605780855685341 Phases=3

New Load.load_p10ulv21149 conn=delta bus1=p10ulv21149.1.2.3 kV=0.48 Vminpu=0.8 Vmaxpu=1.2 model=1 kW=9.33009 kvar=1.8994319194199139 Phases=3

New Load.load_p10ulv21150 conn=delta bus1=p10ulv21150.1.2.3 kV=0.48 Vminpu=0.8 Vmaxpu=1.2 model=1 kW=5.57006 kvar=1.1310489232510417 Phases=3

New Load.load_p10ulv21151 conn=delta bus1=p10ulv21151.1.2.3 kV=0.48 Vminpu=0.8 Vmaxpu=1.2 model=1 kW=3.76004 kvar=0.7595649045608481 Phases=3

New Load.load_p10ulv21152 conn=delta bus1=p10ulv21152.1.2.3 kV=0.48 Vminpu=0.8 Vmaxpu=1.2 model=1 kW=1.9200200000000005 kvar=0.389876689590501 Phases=3

New Load.load_p10ulv21153 conn=delta bus1=p10ulv21153.1.2.3 kV=0.48 Vminpu=0.8 Vmaxpu=1.2 model=1 kW=0.760008 kvar=0.149895635992718 Phases=3

New Load.load_p10ulv21154 conn=delta bus1=p10ulv21154.1.2.3 kV=0.48 Vminpu=0.8 Vmaxpu=1.2 model=1 kW=2.34002 kvar=0.4800368742040182 Phases=3

New Load.load_p10ulv21155 conn=delta bus1=p10ulv21155.1.2.3 kV=0.48 Vminpu=0.8 Vmaxpu=1.2 model=1 kW=0.33000300000000005 kvar=0.07005732894364523 Phases=3

New Load.load_p10ulv21156 conn=delta bus1=p10ulv21156.1.2.3 kV=0.48 Vminpu=0.8 Vmaxpu=1.2 model=1 kW=1.3900100000000002 kvar=0.2800641557575871 Phases=3

New Load.load_p10ulv21157 conn=delta bus1=p10ulv21157.1.2.3 kV=0.48 Vminpu=0.8 Vmaxpu=1.2 model=1 kW=2.08002 kvar=0.42018441101282317 Phases=3

New Load.load_p10ulv21158 conn=delta bus1=p10ulv21158.1.2.3 kV=0.48 Vminpu=0.8 Vmaxpu=1.2 model=1 kW=3.1900299999999997 kvar=0.6494304777239134 Phases=3

New Load.load_p10ulv21159 conn=delta bus1=p10ulv21159.1.2.3 kV=0.48 Vminpu=0.8 Vmaxpu=1.2 model=1 kW=2.60003 kvar=0.5306733382023273 Phases=3

New Load.load_p10ulv21160 conn=delta bus1=p10ulv21160.1.2.3 kV=0.48 Vminpu=0.8 Vmaxpu=1.2 model=1 kW=1.91002 kvar=0.3898403823929759 Phases=3

New Load.load_p10ulv21161 conn=delta bus1=p10ulv21161.1.2.3 kV=0.48 Vminpu=0.8 Vmaxpu=1.2 model=1 kW=4.650050000000001 kvar=0.9490881091017153 Phases=3

New Load.load_p10ulv21162 conn=delta bus1=p10ulv21162.1.2.3 kV=0.48 Vminpu=0.8 Vmaxpu=1.2 model=1 kW=0.910009 kvar=0.17996817738211301 Phases=3

New Load.load_p10ulv21412 conn=delta bus1=p10ulv21412.1.2.3 kV=0.48 Vminpu=0.8 Vmaxpu=1.2 model=1 kW=6.7300699999999996 kvar=1.370116448815647 Phases=3

New Load.load_p10ulv21413 conn=delta bus1=p10ulv21413.1.2.3 kV=0.48 Vminpu=0.8 Vmaxpu=1.2 model=1 kW=9.9001 kvar=2.010301046142706 Phases=3

New Load.load_p10ulv21416 conn=delta bus1=p10ulv21416.1.2.3 kV=0.48 Vminpu=0.8 Vmaxpu=1.2 model=1 kW=5.63006 kvar=1.1402832216685124 Phases=3

New Load.load_p10ulv21939 conn=delta bus1=p10ulv21939.1.2.3 kV=0.48 Vminpu=0.8 Vmaxpu=1.2 model=1 kW=7.82008 kvar=1.592022109584932 Phases=3

